<?xml version="1.0" encoding="UTF-8"?>

<!-- generated on 2026-02-23T10:46:14.365021+05:30 by Eclipse SUMO netconvert 1.26.0
<netconvertConfiguration xmlns:xsi="http://www.w3.org/2001/XMLSchema-instance" xsi:noNamespaceSchemaLocation="http://sumo.dlr.de/xsd/netconvertConfiguration.xsd">

    <input>
        <osm-files value="delhi_intersection.osm"/>
    </input>

    <output>
        <output-file value="delhi_intersection.net.xml"/>
        <output.street-names value="true"/>
    </output>

    <projection>
        <proj.utm value="true"/>
    </projection>

    <processing>
        <geometry.remove value="true"/>
        <roundabouts.guess value="true"/>
        <edges.join value="true"/>
    </processing>

    <tls_building>
        <tls.discard-simple value="true"/>
        <tls.guess value="true"/>
        <tls.join value="true"/>
        <tls.guess-signals value="true"/>
        <tls.default-type value="actuated"/>
    </tls_building>

    <ramp_guessing>
        <ramps.guess value="true"/>
    </ramp_guessing>

    <edge_removal>
        <remove-edges.isolated value="true"/>
    </edge_removal>

    <junctions>
        <no-turnarounds value="true"/>
        <junctions.join value="true"/>
        <junctions.corner-detail value="5"/>
    </junctions>

    <formats>
        <osm.sidewalks value="false"/>
    </formats>

    <report>
        <no-warnings value="true"/>
    </report>

</netconvertConfiguration>
-->

<net version="1.20" junctionCornerDetail="5" limitTurnSpeed="5.50" xmlns:xsi="http://www.w3.org/2001/XMLSchema-instance" xsi:noNamespaceSchemaLocation="http://sumo.dlr.de/xsd/net_file.xsd">

    <location netOffset="-716613.91,-3168545.33" convBoundary="0.00,0.00,1997.13,1777.12" origBoundary="77.207774,28.566854,77.236146,28.643491" projParameter="+proj=utm +zone=43 +ellps=WGS84 +datum=WGS84 +units=m +no_defs"/>

    <type id="highway.footway" priority="1" numLanes="1" speed="2.78" allow="pedestrian" oneway="1" width="2.00"/>
    <type id="highway.pedestrian" priority="1" numLanes="1" speed="2.78" allow="pedestrian" oneway="1" width="2.00"/>
    <type id="highway.residential" priority="3" numLanes="1" speed="13.89" disallow="tram rail_urban rail rail_electric rail_fast ship container cable_car subway aircraft wheelchair scooter drone" oneway="0"/>
    <type id="highway.secondary" priority="11" numLanes="1" speed="27.78" disallow="tram rail_urban rail rail_electric rail_fast ship container cable_car subway aircraft wheelchair scooter drone" oneway="0"/>
    <type id="highway.service" priority="1" numLanes="1" speed="5.56" allow="pedestrian delivery bicycle" oneway="0"/>
    <type id="highway.steps" priority="1" numLanes="1" speed="1.39" allow="pedestrian" oneway="1" width="2.00"/>
    <type id="highway.tertiary" priority="10" numLanes="1" speed="22.22" disallow="tram rail_urban rail rail_electric rail_fast ship container cable_car subway aircraft wheelchair scooter drone" oneway="0"/>
    <type id="highway.unclassified" priority="4" numLanes="1" speed="13.89" disallow="tram rail_urban rail rail_electric rail_fast ship container cable_car subway aircraft wheelchair scooter drone" oneway="0"/>
    <type id="railway.subway" priority="18" numLanes="1" speed="27.78" allow="subway" oneway="1"/>

    <edge id=":10239800518_0" function="internal">
        <lane id=":10239800518_0_0" index="0" disallow="tram rail_urban rail rail_electric rail_fast ship container cable_car subway aircraft wheelchair scooter drone" speed="27.78" length="5.03" shape="690.85,759.60 690.77,754.58"/>
        <lane id=":10239800518_0_1" index="1" disallow="tram rail_urban rail rail_electric rail_fast ship container cable_car subway aircraft wheelchair scooter drone" speed="27.78" length="5.03" shape="694.05,759.55 693.97,754.52"/>
        <lane id=":10239800518_0_2" index="2" disallow="tram rail_urban rail rail_electric rail_fast ship container cable_car subway aircraft wheelchair scooter drone" speed="27.78" length="5.03" shape="697.25,759.49 697.17,754.47"/>
        <lane id=":10239800518_0_3" index="3" disallow="tram rail_urban rail rail_electric rail_fast ship container cable_car subway aircraft wheelchair scooter drone" speed="27.78" length="5.03" shape="700.45,759.44 700.37,754.41"/>
    </edge>
    <edge id=":10239800521_0" function="internal">
        <lane id=":10239800521_0_0" index="0" disallow="tram rail_urban rail rail_electric rail_fast ship container cable_car subway aircraft wheelchair scooter drone" speed="13.89" length="5.01" shape="608.80,758.89 609.18,763.88"/>
    </edge>
    <edge id=":10246421063_0" function="internal">
        <lane id=":10246421063_0_0" index="0" disallow="tram rail_urban rail rail_electric rail_fast ship container cable_car subway aircraft wheelchair scooter drone" speed="6.71" length="9.14" shape="483.74,560.18 483.01,562.52 483.19,564.59 484.27,566.39 486.26,567.92"/>
    </edge>
    <edge id=":10246421063_1" function="internal">
        <lane id=":10246421063_1_0" index="0" disallow="tram rail_urban rail rail_electric rail_fast ship container cable_car subway aircraft wheelchair scooter drone" speed="6.55" length="9.05" shape="473.37,561.52 475.74,562.23 477.77,562.01 479.48,560.86 480.85,558.80"/>
    </edge>
    <edge id=":10246421063_2" function="internal">
        <lane id=":10246421063_2_0" index="0" disallow="tram rail_urban rail rail_electric rail_fast ship container cable_car subway aircraft wheelchair scooter drone" speed="13.89" length="14.39" shape="473.37,561.52 486.26,567.92"/>
    </edge>
    <edge id=":10248567769_0" function="internal">
        <lane id=":10248567769_0_0" index="0" disallow="tram rail_urban rail rail_electric rail_fast ship container cable_car subway aircraft wheelchair scooter drone" speed="22.22" length="5.07" shape="284.57,633.54 282.24,629.03"/>
    </edge>
    <edge id=":10248567769_1" function="internal">
        <lane id=":10248567769_1_0" index="0" disallow="tram rail_urban rail rail_electric rail_fast ship container cable_car subway aircraft wheelchair scooter drone" speed="22.22" length="5.05" shape="285.09,627.58 287.41,632.06"/>
    </edge>
    <edge id=":10248567779_0" function="internal">
        <lane id=":10248567779_0_0" index="0" disallow="tram rail_urban rail rail_electric rail_fast ship container cable_car subway aircraft wheelchair scooter drone" speed="22.22" length="5.07" shape="367.03,607.13 367.19,612.15"/>
        <lane id=":10248567779_0_1" index="1" disallow="tram rail_urban rail rail_electric rail_fast ship container cable_car subway aircraft wheelchair scooter drone" speed="22.22" length="5.07" shape="363.83,607.21 363.99,612.28"/>
        <lane id=":10248567779_0_2" index="2" disallow="tram rail_urban rail rail_electric rail_fast ship container cable_car subway aircraft wheelchair scooter drone" speed="22.22" length="5.07" shape="360.63,607.29 360.79,612.40"/>
    </edge>
    <edge id=":10248624590_0" function="internal">
        <lane id=":10248624590_0_0" index="0" allow="pedestrian delivery bicycle" speed="4.81" length="5.35" shape="137.72,479.99 136.72,478.83 135.67,478.38 134.55,478.64 133.37,479.62"/>
    </edge>
    <edge id=":10248624590_1" function="internal">
        <lane id=":10248624590_1_0" index="0" disallow="tram rail_urban rail rail_electric rail_fast ship container cable_car subway aircraft wheelchair scooter drone" speed="13.89" length="9.63" shape="137.72,479.99 132.54,471.87"/>
    </edge>
    <edge id=":10248624590_2" function="internal">
        <lane id=":10248624590_2_0" index="0" disallow="tram rail_urban rail rail_electric rail_fast ship container cable_car subway aircraft wheelchair scooter drone" speed="13.89" length="9.64" shape="135.23,470.14 140.42,478.27"/>
    </edge>
    <edge id=":10248624590_3" function="internal">
        <lane id=":10248624590_3_0" index="0" allow="pedestrian delivery bicycle" speed="7.71" length="2.84" shape="135.23,470.14 136.16,472.37 136.16,472.80"/>
    </edge>
    <edge id=":10248624590_6" function="internal">
        <lane id=":10248624590_6_0" index="0" allow="pedestrian delivery bicycle" speed="7.71" length="7.61" shape="136.16,472.80 136.16,474.69 135.23,477.11 133.37,479.62"/>
    </edge>
    <edge id=":10248624590_4" function="internal">
        <lane id=":10248624590_4_0" index="0" allow="pedestrian delivery bicycle" speed="6.11" length="6.25" shape="131.00,477.47 132.22,475.88 132.89,474.42 132.99,473.08 132.54,471.87"/>
    </edge>
    <edge id=":10248624590_5" function="internal">
        <lane id=":10248624590_5_0" index="0" allow="pedestrian delivery bicycle" speed="6.70" length="11.60" shape="131.00,477.47 133.55,475.36 135.97,474.79 138.26,475.76 140.42,478.27"/>
    </edge>
    <edge id=":10248624601_0" function="internal">
        <lane id=":10248624601_0_0" index="0" disallow="tram rail_urban rail rail_electric rail_fast ship container cable_car subway aircraft wheelchair scooter drone" speed="22.22" length="5.01" shape="363.29,486.10 363.45,491.10"/>
        <lane id=":10248624601_0_1" index="1" disallow="tram rail_urban rail rail_electric rail_fast ship container cable_car subway aircraft wheelchair scooter drone" speed="22.22" length="5.01" shape="360.09,486.20 360.26,491.20"/>
        <lane id=":10248624601_0_2" index="2" disallow="tram rail_urban rail rail_electric rail_fast ship container cable_car subway aircraft wheelchair scooter drone" speed="22.22" length="5.01" shape="356.89,486.30 357.06,491.31"/>
    </edge>
    <edge id=":10248624604_0" function="internal">
        <lane id=":10248624604_0_0" index="0" allow="pedestrian delivery bicycle" speed="5.56" length="5.29" shape="416.61,465.15 415.44,470.31"/>
    </edge>
    <edge id=":10248624604_1" function="internal">
        <lane id=":10248624604_1_0" index="0" allow="pedestrian delivery bicycle" speed="5.56" length="5.09" shape="412.35,469.51 413.47,464.54"/>
    </edge>
    <edge id=":10248624606_0" function="internal">
        <lane id=":10248624606_0_0" index="0" allow="pedestrian delivery bicycle" speed="5.32" length="5.34" shape="420.87,458.79 419.54,458.86 418.49,459.40 417.72,460.41 417.25,461.88"/>
    </edge>
    <edge id=":10248624606_1" function="internal">
        <lane id=":10248624606_1_0" index="0" disallow="tram rail_urban rail rail_electric rail_fast ship container cable_car subway aircraft wheelchair scooter drone" speed="27.78" length="9.42" shape="420.87,458.79 411.51,457.74"/>
        <lane id=":10248624606_1_1" index="1" disallow="tram rail_urban rail rail_electric rail_fast ship container cable_car subway aircraft wheelchair scooter drone" speed="27.78" length="9.42" shape="421.23,455.61 411.87,454.56"/>
        <lane id=":10248624606_1_2" index="2" disallow="tram rail_urban rail rail_electric rail_fast ship container cable_car subway aircraft wheelchair scooter drone" speed="27.78" length="9.42" shape="421.59,452.43 412.22,451.38"/>
        <lane id=":10248624606_1_3" index="3" disallow="tram rail_urban rail rail_electric rail_fast ship container cable_car subway aircraft wheelchair scooter drone" speed="27.78" length="9.42" shape="421.95,449.25 412.58,448.20"/>
    </edge>
    <edge id=":10248624606_5" function="internal">
        <lane id=":10248624606_5_0" index="0" allow="pedestrian delivery bicycle" speed="4.96" length="5.10" shape="414.10,461.27 414.17,459.86 413.76,458.80 412.88,458.09 411.51,457.74"/>
        <lane id=":10248624606_5_1" index="1" allow="pedestrian delivery bicycle" speed="6.00" length="7.99" shape="414.10,461.27 414.43,458.48 414.16,456.43 413.31,455.12 411.87,454.56"/>
    </edge>
    <edge id=":10248624608_0" function="internal">
        <lane id=":10248624608_0_0" index="0" allow="pedestrian delivery bicycle" speed="5.56" length="8.80" shape="483.21,484.27 481.86,486.17 480.19,487.39 478.19,487.93 475.86,487.78"/>
    </edge>
    <edge id=":10248624608_1" function="internal">
        <lane id=":10248624608_1_0" index="0" allow="pedestrian delivery bicycle" speed="5.44" length="4.67" shape="476.48,484.64 477.71,484.72 478.77,484.43 479.66,483.79 480.38,482.78"/>
    </edge>
    <edge id=":10248656809_0" function="internal">
        <lane id=":10248656809_0_0" index="0" allow="pedestrian delivery bicycle" speed="5.46" length="5.50" shape="490.60,476.48 489.30,476.22 488.13,476.50 487.08,477.32 486.16,478.67"/>
    </edge>
    <edge id=":10248656809_1" function="internal">
        <lane id=":10248656809_1_0" index="0" disallow="tram rail_urban rail rail_electric rail_fast ship container cable_car subway aircraft wheelchair scooter drone" speed="27.78" length="9.44" shape="490.60,476.48 481.80,473.07"/>
        <lane id=":10248656809_1_1" index="1" disallow="tram rail_urban rail rail_electric rail_fast ship container cable_car subway aircraft wheelchair scooter drone" speed="27.78" length="9.44" shape="491.76,473.49 482.95,470.09"/>
        <lane id=":10248656809_1_2" index="2" disallow="tram rail_urban rail rail_electric rail_fast ship container cable_car subway aircraft wheelchair scooter drone" speed="27.78" length="9.44" shape="492.91,470.51 484.10,467.10"/>
        <lane id=":10248656809_1_3" index="3" disallow="tram rail_urban rail rail_electric rail_fast ship container cable_car subway aircraft wheelchair scooter drone" speed="27.78" length="9.44" shape="494.06,467.52 485.26,464.12"/>
    </edge>
    <edge id=":10248656809_5" function="internal">
        <lane id=":10248656809_5_0" index="0" allow="pedestrian delivery bicycle" speed="4.92" length="5.14" shape="483.33,477.18 483.81,475.83 483.72,474.69 483.05,473.78 481.80,473.07"/>
        <lane id=":10248656809_5_1" index="1" allow="pedestrian delivery bicycle" speed="5.97" length="8.10" shape="483.33,477.18 484.45,474.57 484.76,472.52 484.26,471.03 482.95,470.09"/>
    </edge>
    <edge id=":10248656812_0" function="internal">
        <lane id=":10248656812_0_0" index="0" allow="pedestrian delivery bicycle" speed="5.56" length="10.28" shape="554.51,532.46 552.69,530.30 552.01,528.09 552.47,525.82 554.08,523.50"/>
    </edge>
    <edge id=":10248656812_1" function="internal">
        <lane id=":10248656812_1_0" index="0" allow="pedestrian delivery bicycle" speed="5.01" length="5.03" shape="556.43,525.68 555.64,526.82 555.41,527.93 555.74,529.01 556.64,530.06"/>
    </edge>
    <edge id=":10248656813_0" function="internal">
        <lane id=":10248656813_0_0" index="0" allow="pedestrian delivery bicycle" speed="5.14" length="5.04" shape="564.21,521.84 563.05,521.11 561.92,520.91 560.82,521.25 559.75,522.11"/>
    </edge>
    <edge id=":10248656813_1" function="internal">
        <lane id=":10248656813_1_0" index="0" disallow="tram rail_urban rail rail_electric rail_fast ship container cable_car subway aircraft wheelchair scooter drone" speed="27.78" length="6.58" shape="564.21,521.84 559.32,517.45"/>
        <lane id=":10248656813_1_1" index="1" disallow="tram rail_urban rail rail_electric rail_fast ship container cable_car subway aircraft wheelchair scooter drone" speed="27.78" length="6.58" shape="566.36,519.47 561.47,515.08"/>
        <lane id=":10248656813_1_2" index="2" disallow="tram rail_urban rail rail_electric rail_fast ship container cable_car subway aircraft wheelchair scooter drone" speed="27.78" length="6.58" shape="568.52,517.10 563.62,512.71"/>
        <lane id=":10248656813_1_3" index="3" disallow="tram rail_urban rail rail_electric rail_fast ship container cable_car subway aircraft wheelchair scooter drone" speed="27.78" length="6.58" shape="570.67,514.73 565.77,510.34"/>
    </edge>
    <edge id=":10248656813_5" function="internal">
        <lane id=":10248656813_5_0" index="0" allow="pedestrian delivery bicycle" speed="4.29" length="3.37" shape="557.41,519.93 558.10,519.33 558.90,518.67 559.43,518.02 559.32,517.45"/>
        <lane id=":10248656813_5_1" index="1" allow="pedestrian delivery bicycle" speed="5.59" length="6.45" shape="557.41,519.93 558.44,518.96 559.97,517.48 561.24,516.02 561.47,515.08"/>
    </edge>
    <edge id=":10248656815_0" function="internal">
        <lane id=":10248656815_0_0" index="0" allow="pedestrian delivery bicycle" speed="4.89" length="5.20" shape="593.35,547.46 592.22,546.54 591.11,546.26 590.03,546.63 588.97,547.63"/>
    </edge>
    <edge id=":10248656815_1" function="internal">
        <lane id=":10248656815_1_0" index="0" disallow="tram rail_urban rail rail_electric rail_fast ship container cable_car subway aircraft wheelchair scooter drone" speed="27.78" length="10.71" shape="593.35,547.46 591.38,545.34 589.98,543.94 588.45,542.67 586.12,540.96"/>
        <lane id=":10248656815_1_1" index="1" disallow="tram rail_urban rail rail_electric rail_fast ship container cable_car subway aircraft wheelchair scooter drone" speed="27.78" length="10.71" shape="595.70,545.28 593.60,543.02 592.10,541.53 590.47,540.19 587.99,538.37"/>
        <lane id=":10248656815_1_2" index="2" disallow="tram rail_urban rail rail_electric rail_fast ship container cable_car subway aircraft wheelchair scooter drone" speed="27.78" length="10.71" shape="598.05,543.11 595.82,540.71 594.23,539.13 592.50,537.70 589.86,535.77"/>
        <lane id=":10248656815_1_3" index="3" disallow="tram rail_urban rail rail_electric rail_fast ship container cable_car subway aircraft wheelchair scooter drone" speed="27.78" length="10.71" shape="600.40,540.93 598.04,538.40 596.35,536.73 594.52,535.22 591.73,533.17"/>
    </edge>
    <edge id=":10248656815_5" function="internal">
        <lane id=":10248656815_5_0" index="0" allow="pedestrian delivery bicycle" speed="6.78" length="9.08" shape="600.40,540.93 598.17,538.29 596.82,536.11 596.36,534.41 596.78,533.18"/>
    </edge>
    <edge id=":10248656815_6" function="internal">
        <lane id=":10248656815_6_0" index="0" allow="pedestrian delivery bicycle" speed="5.56" length="16.02" shape="599.19,535.29 588.97,547.63"/>
    </edge>
    <edge id=":10248656815_7" function="internal">
        <lane id=":10248656815_7_0" index="0" allow="pedestrian delivery bicycle" speed="6.48" length="8.31" shape="599.19,535.29 598.07,535.91 596.45,535.76 594.34,534.85 591.73,533.17"/>
    </edge>
    <edge id=":10248656815_8" function="internal">
        <lane id=":10248656815_8_0" index="0" allow="pedestrian delivery bicycle" speed="5.14" length="5.40" shape="586.46,545.65 587.28,544.29 587.49,543.06 587.11,541.95 586.12,540.96"/>
    </edge>
    <edge id=":10248656815_9" function="internal">
        <lane id=":10248656815_9_0" index="0" allow="pedestrian delivery bicycle" speed="5.56" length="16.18" shape="586.46,545.65 596.78,533.18"/>
    </edge>
    <edge id=":10248656816_0" function="internal">
        <lane id=":10248656816_0_0" index="0" allow="pedestrian delivery bicycle" speed="5.19" length="5.18" shape="614.65,570.79 613.61,569.93 612.50,569.62 611.32,569.85 610.07,570.63"/>
    </edge>
    <edge id=":10248656816_1" function="internal">
        <lane id=":10248656816_1_0" index="0" disallow="tram rail_urban rail rail_electric rail_fast ship container cable_car subway aircraft wheelchair scooter drone" speed="27.78" length="9.39" shape="614.65,570.79 608.39,563.77"/>
        <lane id=":10248656816_1_1" index="1" disallow="tram rail_urban rail rail_electric rail_fast ship container cable_car subway aircraft wheelchair scooter drone" speed="27.78" length="9.39" shape="617.04,568.65 610.78,561.64"/>
        <lane id=":10248656816_1_2" index="2" disallow="tram rail_urban rail rail_electric rail_fast ship container cable_car subway aircraft wheelchair scooter drone" speed="27.78" length="9.39" shape="619.42,566.52 613.17,559.51"/>
        <lane id=":10248656816_1_3" index="3" disallow="tram rail_urban rail rail_electric rail_fast ship container cable_car subway aircraft wheelchair scooter drone" speed="27.78" length="9.39" shape="621.81,564.39 615.56,557.39"/>
    </edge>
    <edge id=":10248656816_5" function="internal">
        <lane id=":10248656816_5_0" index="0" allow="pedestrian delivery bicycle" speed="4.99" length="5.05" shape="608.04,568.15 608.99,567.12 609.36,566.05 609.16,564.93 608.39,563.77"/>
        <lane id=":10248656816_5_1" index="1" allow="pedestrian delivery bicycle" speed="6.04" length="7.88" shape="608.04,568.15 610.07,566.23 611.20,564.51 611.44,562.98 610.78,561.64"/>
    </edge>
    <edge id=":10254868955_0" function="internal">
        <lane id=":10254868955_0_0" index="0" allow="pedestrian delivery bicycle" speed="5.56" length="9.02" shape="675.29,487.44 673.76,485.23 672.70,483.74 671.54,482.32 669.74,480.33"/>
    </edge>
    <edge id=":10254868955_1" function="internal">
        <lane id=":10254868955_1_0" index="0" allow="pedestrian delivery bicycle" speed="5.56" length="11.45" shape="675.29,487.44 673.83,484.53 673.80,482.06 675.21,480.03 678.05,478.44"/>
    </edge>
    <edge id=":10254868955_2" function="internal">
        <lane id=":10254868955_2_0" index="0" allow="pedestrian delivery bicycle" speed="4.82" length="5.32" shape="679.19,481.43 677.88,482.17 677.22,483.11 677.23,484.26 677.91,485.61"/>
    </edge>
    <edge id=":10254868955_3" function="internal">
        <lane id=":10254868955_3_0" index="0" allow="pedestrian delivery bicycle" speed="5.56" length="10.13" shape="679.19,481.43 676.27,482.26 673.72,482.35 671.55,481.71 669.74,480.33"/>
    </edge>
    <edge id=":10254868955_4" function="internal">
        <lane id=":10254868955_4_0" index="0" allow="pedestrian delivery bicycle" speed="5.56" length="6.31" shape="672.09,478.16 673.12,478.89 674.46,479.18 676.10,479.03 678.05,478.44"/>
    </edge>
    <edge id=":10254868955_5" function="internal">
        <lane id=":10254868955_5_0" index="0" allow="pedestrian delivery bicycle" speed="5.56" length="9.47" shape="672.09,478.16 673.98,480.24 675.19,481.73 676.32,483.30 677.91,485.61"/>
    </edge>
    <edge id=":10254868968_0" function="internal">
        <lane id=":10254868968_0_0" index="0" allow="pedestrian delivery bicycle" speed="5.56" length="1.88" shape="650.48,556.01 649.95,555.85 649.60,555.71 649.27,555.50 648.83,555.16"/>
    </edge>
    <edge id=":10254868968_1" function="internal">
        <lane id=":10254868968_1_0" index="0" allow="pedestrian delivery bicycle" speed="5.56" length="0.63" shape="650.82,552.65 650.97,552.77 651.07,552.84 651.19,552.88 651.37,552.94"/>
    </edge>
    <edge id=":10254868975_0" function="internal">
        <lane id=":10254868975_0_0" index="0" allow="pedestrian delivery bicycle" speed="5.56" length="6.48" shape="598.08,508.95 593.25,504.63"/>
    </edge>
    <edge id=":10254868975_1" function="internal">
        <lane id=":10254868975_1_0" index="0" allow="pedestrian delivery bicycle" speed="5.56" length="8.08" shape="598.08,508.95 597.30,507.67 597.31,506.03 598.09,504.05 599.67,501.73"/>
    </edge>
    <edge id=":10254868975_2" function="internal">
        <lane id=":10254868975_2_0" index="0" allow="pedestrian delivery bicycle" speed="5.01" length="5.04" shape="595.31,502.18 596.48,502.91 597.60,503.08 598.67,502.68 599.67,501.73"/>
    </edge>
    <edge id=":10254868975_3" function="internal">
        <lane id=":10254868975_3_0" index="0" allow="pedestrian delivery bicycle" speed="5.56" length="6.68" shape="595.31,502.18 600.29,506.63"/>
    </edge>
    <edge id=":10254868975_4" function="internal">
        <lane id=":10254868975_4_0" index="0" allow="pedestrian delivery bicycle" speed="5.19" length="5.27" shape="593.71,509.26 594.44,508.01 594.61,506.83 594.21,505.70 593.25,504.63"/>
    </edge>
    <edge id=":10254868975_5" function="internal">
        <lane id=":10254868975_5_0" index="0" allow="pedestrian delivery bicycle" speed="5.56" length="9.60" shape="593.71,509.26 599.67,501.73"/>
    </edge>
    <edge id=":10254868975_6" function="internal">
        <lane id=":10254868975_6_0" index="0" allow="pedestrian delivery bicycle" speed="5.56" length="8.01" shape="593.71,509.26 595.63,507.20 597.36,506.07 598.92,505.89 600.29,506.63"/>
    </edge>
    <edge id=":10254868976_0" function="internal">
        <lane id=":10254868976_0_0" index="0" allow="pedestrian delivery bicycle" speed="5.56" length="9.41" shape="615.54,516.57 609.35,523.65"/>
    </edge>
    <edge id=":10254868976_1" function="internal">
        <lane id=":10254868976_1_0" index="0" allow="pedestrian delivery bicycle" speed="5.56" length="10.37" shape="615.54,516.57 613.37,518.43 611.15,519.12 608.87,518.64 606.54,516.99"/>
    </edge>
    <edge id=":10254868976_2" function="internal">
        <lane id=":10254868976_2_0" index="0" allow="pedestrian delivery bicycle" speed="5.00" length="5.05" shape="608.74,514.67 609.88,515.47 610.99,515.71 612.07,515.37 613.13,514.46"/>
    </edge>
    <edge id=":10254868976_3" function="internal">
        <lane id=":10254868976_3_0" index="0" allow="pedestrian delivery bicycle" speed="5.56" length="10.18" shape="608.74,514.67 610.52,516.88 611.21,519.11 610.82,521.37 609.35,523.65"/>
    </edge>
    <edge id=":10254868976_4" function="internal">
        <lane id=":10254868976_4_0" index="0" allow="pedestrian delivery bicycle" speed="5.18" length="5.17" shape="606.94,521.55 607.66,520.41 607.84,519.27 607.46,518.13 606.54,516.99"/>
    </edge>
    <edge id=":10254868976_5" function="internal">
        <lane id=":10254868976_5_0" index="0" allow="pedestrian delivery bicycle" speed="5.56" length="9.41" shape="606.94,521.55 613.13,514.46"/>
    </edge>
    <edge id=":10254868977_0" function="internal">
        <lane id=":10254868977_0_0" index="0" disallow="tram rail_urban rail rail_electric rail_fast ship container cable_car subway aircraft wheelchair scooter drone" speed="13.89" length="6.26" shape="650.93,442.66 645.45,439.64"/>
    </edge>
    <edge id=":10254868977_1" function="internal">
        <lane id=":10254868977_1_0" index="0" disallow="tram rail_urban rail rail_electric rail_fast ship container cable_car subway aircraft wheelchair scooter drone" speed="13.89" length="6.26" shape="647.00,436.84 652.47,439.86"/>
    </edge>
    <edge id=":10254868977_2" function="internal">
        <lane id=":10254868977_2_0" index="0" allow="pedestrian delivery bicycle" speed="4.87" length="5.24" shape="646.27,443.94 647.04,442.68 647.16,441.54 646.63,440.53 645.45,439.64"/>
    </edge>
    <edge id=":10254868977_3" function="internal">
        <lane id=":10254868977_3_0" index="0" allow="pedestrian delivery bicycle" speed="6.54" length="7.83" shape="646.27,443.94 648.26,441.75 649.95,440.34 651.36,439.71 652.47,439.86"/>
    </edge>
    <edge id=":10254888568_0" function="internal">
        <lane id=":10254888568_0_0" index="0" disallow="tram rail_urban rail rail_electric rail_fast ship container cable_car subway aircraft wheelchair scooter drone" speed="13.89" length="9.45" shape="713.88,527.47 709.34,519.17"/>
    </edge>
    <edge id=":10254888568_1" function="internal">
        <lane id=":10254888568_1_0" index="0" allow="pedestrian delivery bicycle" speed="7.21" length="3.04" shape="713.88,527.47 713.01,525.03 713.03,524.58"/>
    </edge>
    <edge id=":10254888568_6" function="internal">
        <lane id=":10254888568_6_0" index="0" allow="pedestrian delivery bicycle" speed="7.21" length="7.20" shape="713.03,524.58 713.14,522.74 714.28,520.60 716.43,518.60"/>
    </edge>
    <edge id=":10254888568_2" function="internal">
        <lane id=":10254888568_2_0" index="0" allow="pedestrian delivery bicycle" speed="5.49" length="5.54" shape="718.31,521.19 717.07,522.31 716.39,523.47 716.26,524.68 716.69,525.93"/>
    </edge>
    <edge id=":10254888568_3" function="internal">
        <lane id=":10254888568_3_0" index="0" allow="pedestrian delivery bicycle" speed="6.77" length="10.81" shape="718.31,521.19 715.64,522.60 713.25,522.73 711.15,521.59 709.34,519.17"/>
    </edge>
    <edge id=":10254888568_4" function="internal">
        <lane id=":10254888568_4_0" index="0" allow="pedestrian delivery bicycle" speed="4.92" length="5.16" shape="712.15,517.64 713.02,518.79 714.02,519.33 715.15,519.27 716.43,518.60"/>
    </edge>
    <edge id=":10254888568_5" function="internal">
        <lane id=":10254888568_5_0" index="0" disallow="tram rail_urban rail rail_electric rail_fast ship container cable_car subway aircraft wheelchair scooter drone" speed="13.89" length="9.45" shape="712.15,517.64 716.69,525.93"/>
    </edge>
    <edge id=":10254904887_0" function="internal">
        <lane id=":10254904887_0_0" index="0" allow="pedestrian delivery bicycle" speed="5.56" length="5.62" shape="626.28,462.25 627.82,462.98 629.18,463.18 630.37,462.86 631.37,462.01"/>
    </edge>
    <edge id=":10254904887_1" function="internal">
        <lane id=":10254904887_1_0" index="0" allow="pedestrian delivery bicycle" speed="4.90" length="5.18" shape="625.35,469.31 626.11,468.07 626.23,466.94 625.74,465.91 624.62,464.99"/>
    </edge>
    <edge id=":10254904887_2" function="internal">
        <lane id=":10254904887_2_0" index="0" allow="pedestrian delivery bicycle" speed="5.56" length="9.47" shape="625.35,469.31 631.37,462.01"/>
    </edge>
    <edge id=":10685759180_0" function="internal">
        <lane id=":10685759180_0_0" index="0" disallow="tram rail_urban rail rail_electric rail_fast ship container cable_car subway aircraft wheelchair scooter drone" speed="22.22" length="9.31" shape="494.56,757.86 494.32,755.15 493.90,753.33 493.31,751.53 492.54,748.90"/>
        <lane id=":10685759180_0_1" index="1" disallow="tram rail_urban rail rail_electric rail_fast ship container cable_car subway aircraft wheelchair scooter drone" speed="22.22" length="9.31" shape="497.73,757.14 497.48,754.40 497.04,752.57 496.42,750.76 495.64,748.11"/>
        <lane id=":10685759180_0_2" index="2" disallow="tram rail_urban rail rail_electric rail_fast ship container cable_car subway aircraft wheelchair scooter drone" speed="22.22" length="9.31" shape="500.90,756.42 500.64,753.66 500.18,751.81 499.54,749.99 498.74,747.31"/>
    </edge>
    <edge id=":10685759180_3" function="internal">