<?xml version='1.0' encoding='utf-8'?>
<routes xmlns:xsi="http://www.w3.org/2001/XMLSchema-instance" xsi:noNamespaceSchemaLocation="http://sumo.dlr.de/xsd/routes_file.xsd">
    <trip id="two_wheeler0" depart="0.00" from="23133709#3" to="564223496" type="two_wheeler" />
    <trip id="car0" depart="0.00" from="28103794#0" to="23133600#6" type="car" />
    <trip id="three_wheeler0" depart="0.00" from="24582921#0" to="578543603#3" type="three_wheeler" />
    <trip id="bus0" depart="0.00" from="24582921#0" to="24577487#3" type="bus" />
    <trip id="ambulance0" depart="0.00" from="-1120299304" to="24577488#6" type="ambulance" />
    <trip id="two_wheeler1" depart="3.00" from="563679821" to="24577488#6" type="two_wheeler" />
    <trip id="car1" depart="4.00" from="707566696#1" to="-707566696#0" type="car" />
    <trip id="two_wheeler2" depart="6.00" from="562340241" to="564223496" type="two_wheeler" />
    <trip id="car2" depart="8.00" from="-1120299304" to="24582917" type="car" />
    <trip id="three_wheeler1" depart="8.00" from="28103794#0" to="1278775921#1" type="three_wheeler" />
    <trip id="two_wheeler3" depart="9.00" from="23133600#9" to="-391534135#6" type="two_wheeler" />
    <trip id="two_wheeler4" depart="12.00" from="-1466163953" to="564223496" type="two_wheeler" />
    <trip id="car3" depart="12.00" from="24582921#0" to="-707566696#0" type="car" />
    <trip id="bus1" depart="12.00" from="-1120299304" to="-707566696#0" type="bus" />
    <trip id="two_wheeler5" depart="15.00" from="24577482#1" to="596373332#0" type="two_wheeler" />
    <trip id="car4" depart="16.00" from="174274680#1" to="24582917" type="car" />
    <trip id="three_wheeler2" depart="16.00" from="24582921#0" to="24577480#0" type="three_wheeler" />
    <trip id="two_wheeler6" depart="18.00" from="24582921#0" to="1278775921#1" type="two_wheeler" />
    <trip id="car5" depart="20.00" from="391534135#2" to="-707566696#0" type="car" />
    <trip id="two_wheeler7" depart="21.00" from="253307767#0" to="578543603#3" type="two_wheeler" />
    <trip id="two_wheeler8" depart="24.00" from="570616026#1" to="24577488#6" type="two_wheeler" />
    <trip id="car6" depart="24.00" from="28103794#0" to="596373346" type="car" />
    <trip id="three_wheeler3" depart="24.00" from="24577487#0" to="24577487#3" type="three_wheeler" />
    <trip id="bus2" depart="24.00" from="579781481#0" to="23133600#15" type="bus" />
    <trip id="two_wheeler9" depart="27.00" from="579781481#0" to="596373332#1" type="two_wheeler" />
    <trip id="car7" depart="28.00" from="24577480#3" to="-391534135#1" type="car" />
    <trip id="two_wheeler10" depart="30.00" from="80499778#0" to="-103176785" type="two_wheeler" />
    <trip id="car8" depart="32.00" from="24582921#0" to="1386548336" type="car" />
    <trip id="three_wheeler4" depart="32.00" from="24582921#0" to="174274680#1" type="three_wheeler" />
    <trip id="two_wheeler11" depart="33.00" from="-1120299304" to="23133709#2" type="two_wheeler" />
    <trip id="two_wheeler12" depart="36.00" from="23133600#9" to="253307767#1" type="two_wheeler" />
    <trip id="car9" depart="36.00" from="24582921#0" to="23133600#3" type="car" />
    <trip id="bus3" depart="36.00" from="562340241" to="24577488#6" type="bus" />
    <trip id="two_wheeler13" depart="39.00" from="80499778#0" to="570616027" type="two_wheeler" />
    <trip id="car10" depart="40.00" from="253307767#1" to="-24582921#0" type="car" />
    <trip id="three_wheeler5" depart="40.00" from="174274680#0" to="1278775921#1" type="three_wheeler" />
    <trip id="two_wheeler14" depart="42.00" from="24577482#1" to="578543603#3" type="two_wheeler" />
    <trip id="car11" depart="44.00" from="23133600#4" to="1386548336" type="car" />
    <trip id="two_wheeler15" depart="45.00" from="579781481#0" to="391534135#2" type="two_wheeler" />
    <trip id="two_wheeler16" depart="48.00" from="24577488#1" to="24577488#5" type="two_wheeler" />
    <trip id="car12" depart="48.00" from="596373332#0" to="23133600#4" type="car" />
    <trip id="three_wheeler6" depart="48.00" from="-1466163953" to="570616026#5" type="three_wheeler" />
    <trip id="bus4" depart="48.00" from="563679821" to="24582917" type="bus" />
    <trip id="two_wheeler17" depart="51.00" from="80499778#0" to="-24582921#0" type="two_wheeler" />
    <trip id="car13" depart="52.00" from="-1466163953" to="24582917" type="car" />
    <trip id="two_wheeler18" depart="54.00" from="1375201075" to="-103176785" type="two_wheeler" />
    <trip id="car14" depart="56.00" from="80499778#0" to="1278775921#1" type="car" />
    <trip id="three_wheeler7" depart="56.00" from="80499778#0" to="1278775921#1" type="three_wheeler" />
    <trip id="two_wheeler19" depart="57.00" from="23133709#4" to="-707566696#0" type="two_wheeler" />
    <trip id="two_wheeler20" depart="60.00" from="164675827#5" to="1120299304" type="two_wheeler" />
    <trip id="car15" depart="60.00" from="-1466163953" to="596373332#1" type="car" />
    <trip id="bus5" depart="60.00" from="80499778#0" to="1278775921#1" type="bus" />
    <trip id="two_wheeler21" depart="63.00" from="164675827#4" to="-391534135#3" type="two_wheeler" />
    <trip id="car16" depart="64.00" from="164675827#5" to="24582917" type="car" />
    <trip id="three_wheeler8" depart="64.00" from="-1120299304" to="24577480#2" type="three_wheeler" />
    <trip id="two_wheeler22" depart="66.00" from="80499778#0" to="24577480#4" type="two_wheeler" />
    <trip id="car17" depart="68.00" from="563679821" to="23133600#0" type="car" />
    <trip id="two_wheeler23" depart="69.00" from="-1120299304" to="23133709#2" type="two_wheeler" />
    <trip id="two_wheeler24" depart="72.00" from="28103794#0" to="24577482#1" type="two_wheeler" />
    <trip id="car18" depart="72.00" from="563679821" to="578543603#3" type="car" />
    <trip id="three_wheeler9" depart="72.00" from="-1120299304" to="564223496" type="three_wheeler" />
    <trip id="bus6" depart="72.00" from="80499778#0" to="23133600#14" type="bus" />
    <trip id="two_wheeler25" depart="75.00" from="28103794#0" to="1386548336" type="two_wheeler" />
    <trip id="car19" depart="76.00" from="28103794#0" to="570616027" type="car" />
    <trip id="two_wheeler26" depart="78.00" from="579781481#0" to="1120299304" type="two_wheeler" />
    <trip id="car20" depart="80.00" from="579781481#1" to="24577487#3" type="car" />
    <trip id="three_wheeler10" depart="80.00" from="707566696#1" to="174274680#2" type="three_wheeler" />
    <trip id="two_wheeler27" depart="81.00" from="707566696#0" to="23133709#2" type="two_wheeler" />
    <trip id="two_wheeler28" depart="84.00" from="164675827#1" to="596373332#1" type="two_wheeler" />
    <trip id="car21" depart="84.00" from="174274680#2" to="570616026#2" type="car" />
    <trip id="bus7" depart="84.00" from="24577483#0" to="596373332#1" type="bus" />
    <trip id="two_wheeler29" depart="87.00" from="707566696#0" to="24577487#3" type="two_wheeler" />
    <trip id="car22" depart="88.00" from="391534135#2" to="-103176785" type="car" />
    <trip id="three_wheeler11" depart="88.00" from="707566696#0" to="570616026#1" type="three_wheeler" />
    <trip id="two_wheeler30" depart="90.00" from="174274680#2" to="23133600#2" type="two_wheeler" />
    <trip id="car23" depart="92.00" from="570616027" to="578543603#3" type="car" />
    <trip id="two_wheeler31" depart="93.00" from="23133600#3" to="578543603#3" type="two_wheeler" />
    <trip id="two_wheeler32" depart="96.00" from="563679821" to="-103176785" type="two_wheeler" />
    <trip id="car24" depart="96.00" from="28103794#0" to="24577488#4" type="car" />
    <trip id="three_wheeler12" depart="96.00" from="-1120299304" to="-707566696#0" type="three_wheeler" />
    <trip id="bus8" depart="96.00" from="24577483#0" to="24577480#1" type="bus" />
    <trip id="two_wheeler33" depart="99.00" from="28103794#0" to="-24582921#0" type="two_wheeler" />
    <trip id="car25" depart="100.00" from="24582921#0" to="-103176785" type="car" />
    <trip id="two_wheeler34" depart="102.00" from="24582921#1" to="564223496" type="two_wheeler" />
    <trip id="car26" depart="104.00" from="80499778#2" to="570616026#5" type="car" />
    <trip id="three_wheeler13" depart="104.00" from="596373332#0" to="578543603#2" type="three_wheeler" />
    <trip id="two_wheeler35" depart="105.00" from="24577480#2" to="24582917" type="two_wheeler" />
    <trip id="two_wheeler36" depart="108.00" from="80499778#0" to="24582917" type="two_wheeler" />
    <trip id="car27" depart="108.00" from="-1466163953" to="596373332#1" type="car" />
    <trip id="bus9" depart="108.00" from="563679821" to="1120299304" type="bus" />
    <trip id="two_wheeler37" depart="111.00" from="24577483#2" to="-24582921#1" type="two_wheeler" />
    <trip id="car28" depart="112.00" from="707566696#0" to="24582917" type="car" />
    <trip id="three_wheeler14" depart="112.00" from="707566696#0" to="24582917" type="three_wheeler" />
    <trip id="two_wheeler38" depart="114.00" from="707566696#0" to="-24582921#0" type="two_wheeler" />
    <trip id="car29" depart="116.00" from="707566696#0" to="253307767#4" type="car" />
    <trip id="two_wheeler39" depart="117.00" from="28103794#0" to="391534135#1" type="two_wheeler" />
    <trip id="two_wheeler40" depart="120.00" from="24577480#0" to="-391534135#4" type="two_wheeler" />
    <trip id="car30" depart="120.00" from="174274680#2" to="-707566696#0" type="car" />
    <trip id="three_wheeler15" depart="120.00" from="28103794#0" to="579781481#1" type="three_wheeler" />
    <trip id="bus10" depart="120.00" from="391534135#2" to="23133600#9" type="bus" />
    <trip id="ambulance1" depart="120.00" from="24577486#2" to="24577488#6" type="ambulance" />
    <trip id="two_wheeler41" depart="123.00" from="563679821" to="578543603#0" type="two_wheeler" />
    <trip id="car31" depart="124.00" from="80499778#0" to="1386548336" type="car" />
    <trip id="two_wheeler42" depart="126.00" from="-1466163953" to="1120299304" type="two_wheeler" />
    <trip id="car32" depart="128.00" from="253307767#4" to="570616026#5" type="car" />
    <trip id="three_wheeler16" depart="128.00" from="-1120299304" to="1386548336" type="three_wheeler" />
    <trip id="two_wheeler43" depart="129.00" from="28103794#0" to="596373346" type="two_wheeler" />
    <trip id="two_wheeler44" depart="132.00" from="23133600#4" to="-24582921#0" type="two_wheeler" />
    <trip id="car33" depart="132.00" from="28103794#0" to="-391534135#6" type="car" />
    <trip id="bus11" depart="132.00" from="28103794#0" to="24582917" type="bus" />
    <trip id="two_wheeler45" depart="135.00" from="24582921#0" to="578543603#3" type="two_wheeler" />
    <trip id="car34" depart="136.00" from="253307767#0" to="391534135#0" type="car" />
    <trip id="three_wheeler17" depart="136.00" from="-1120299304" to="564223496" type="three_wheeler" />
    <trip id="two_wheeler46" depart="138.00" from="579781481#0" to="1375201075" type="two_wheeler" />
    <trip id="car35" depart="140.00" from="707566696#0" to="562340243" type="car" />
    <trip id="two_wheeler47" depart="141.00" from="-1120299304" to="24577480#2" type="two_wheeler" />
    <trip id="two_wheeler48" depart="144.00" from="253307767#3" to="24577487#1" type="two_wheeler" />
    <trip id="car36" depart="144.00" from="570616027" to="24582917" type="car" />
    <trip id="three_wheeler18" depart="144.00" from="579781481#0" to="-707566696#0" type="three_wheeler" />
    <trip id="bus12" depart="144.00" from="-1466163953" to="596373332#0" type="bus" />
    <trip id="two_wheeler49" depart="147.00" from="-1120299304" to="1278775921#1" type="two_wheeler" />
    <trip id="car37" depart="148.00" from="24582921#0" to="570616028#0" type="car" />
    <trip id="two_wheeler50" depart="150.00" from="253307767#4" to="-24582921#0" type="two_wheeler" />
    <trip id="car38" depart="152.00" from="-1120299304" to="23133600#10" type="car" />
    <trip id="three_wheeler19" depart="152.00" from="563679821" to="23133600#14" type="three_wheeler" />
    <trip id="two_wheeler51" depart="153.00" from="23133600#8" to="24577487#3" type="two_wheeler" />
    <trip id="two_wheeler52" depart="156.00" from="570616027" to="596373332#0" type="two_wheeler" />
    <trip id="car39" depart="156.00" from="23133600#6" to="596373332#0" type="car" />
    <trip id="bus13" depart="156.00" from="-1466163953" to="1278775921#1" type="bus" />
    <trip id="two_wheeler53" depart="159.00" from="23133600#3" to="164675827#4" type="two_wheeler" />
    <trip id="car40" depart="160.00" from="24582921#0" to="24582917" type="car" />
    <trip id="three_wheeler20" depart="160.00" from="24577486#3" to="23133600#9" type="three_wheeler" />
    <trip id="two_wheeler54" depart="162.00" from="23133600#7" to="24577487#3" type="two_wheeler" />
    <trip id="car41" depart="164.00" from="23133600#9" to="564223496" type="car" />
    <trip id="two_wheeler55" depart="165.00" from="23133709#0" to="24577488#1" type="two_wheeler" />
    <trip id="two_wheeler56" depart="168.00" from="24582921#1" to="24577480#0" type="two_wheeler" />
    <trip id="car42" depart="168.00" from="563679821" to="24577486#3" type="car" />
    <trip id="three_wheeler21" depart="168.00" from="391534135#1" to="-707566696#0" type="three_wheeler" />
    <trip id="bus14" depart="168.00" from="579781481#1" to="391534135#5" type="bus" />
    <trip id="two_wheeler57" depart="171.00" from="24582921#0" to="-707566696#0" type="two_wheeler" />
    <trip id="car43" depart="172.00" from="24582921#0" to="24577487#2" type="car" />
    <trip id="two_wheeler58" depart="174.00" from="707566696#0" to="562340243" type="two_wheeler" />
    <trip id="car44" depart="176.00" from="391534135#3" to="-24582921#0" type="car" />
    <trip id="three_wheeler22" depart="176.00" from="24582921#0" to="24577487#1" type="three_wheeler" />
    <trip id="two_wheeler59" depart="177.00" from="579781481#0" to="391534135#5" type="two_wheeler" />
    <trip id="two_wheeler60" depart="180.00" from="-1120299304" to="570616026#5" type="two_wheeler" />
    <trip id="car45" depart="180.00" from="391534135#5" to="23133600#8" type="car" />
    <trip id="bus15" depart="180.00" from="707566696#0" to="174274680#2" type="bus" />
    <trip id="two_wheeler61" depart="183.00" from="579781481#0" to="-253307767#4" type="two_wheeler" />
    <trip id="car46" depart="184.00" from="80499778#3" to="-707566696#0" type="car" />
    <trip id="three_wheeler23" depart="184.00" from="24582921#0" to="564223496" type="three_wheeler" />
    <trip id="two_wheeler62" depart="186.00" from="23133709#3" to="-707566696#0" type="two_wheeler" />
    <trip id="car47" depart="188.00" from="23133600#11" to="578543603#3" type="car" />
    <trip id="two_wheeler63" depart="189.00" from="579781481#0" to="596373332#1" type="two_wheeler" />
    <trip id="two_wheeler64" depart="192.00" from="23133709#4" to="-707566696#0" type="two_wheeler" />
    <trip id="car48" depart="192.00" from="391534135#2" to="24582917" type="car" />
    <trip id="three_wheeler24" depart="192.00" from="563679821" to="24582917" type="three_wheeler" />
    <trip id="bus16" depart="192.00" from="391534135#1" to="-24582921#0" type="bus" />
    <trip id="two_wheeler65" depart="195.00" from="579781481#0" to="174274680#0" type="two_wheeler" />
    <trip id="car49" depart="196.00" from="80499778#0" to="24582917" type="car" />
    <trip id="two_wheeler66" depart="198.00" from="24577482#0" to="164675827#0" type="two_wheeler" />
    <trip id="car50" depart="200.00" from="24577483#2" to="24577480#1" type="car" />
    <trip id="three_wheeler25" depart="200.00" from="164675827#5" to="596373332#1" type="three_wheeler" />
    <trip id="two_wheeler67" depart="201.00" from="563679821" to="-24582921#0" type="two_wheeler" />
    <trip id="two_wheeler68" depart="204.00" from="24582921#0" to="760480737" type="two_wheeler" />
    <trip id="car51" depart="204.00" from="391534135#3" to="23133600#6" type="car" />
    <trip id="bus17" depart="204.00" from="579781481#0" to="24577487#3" type="bus" />
    <trip id="two_wheeler69" depart="207.00" from="563679821" to="24577488#2" type="two_wheeler" />
    <trip id="car52" depart="208.00" from="164675827#0" to="24582917" type="car" />
    <trip id="three_wheeler26" depart="208.00" from="23133600#10" to="24577488#6" type="three_wheeler" />
    <trip id="two_wheeler70" depart="210.00" from="253307767#3" to="-24582921#0" type="two_wheeler" />
    <trip id="car53" depart="212.00" from="24582921#0" to="-103176785" type="car" />
    <trip id="two_wheeler71" depart="213.00" from="24582921#0" to="570616026#2" type="two_wheeler" />
    <trip id="two_wheeler72" depart="216.00" from="563679821" to="570616026#4" type="two_wheeler" />
    <trip id="car54" depart="216.00" from="707566696#0" to="24577488#4" type="car" />
    <trip id="three_wheeler27" depart="216.00" from="391534135#2" to="24582917" type="three_wheeler" />
    <trip id="bus18" depart="216.00" from="563679821" to="-707566696#0" type="bus" />
    <trip id="two_wheeler73" depart="219.00" from="80499778#0" to="1386548336" type="two_wheeler" />
    <trip id="car55" depart="220.00" from="24582921#0" to="24577488#6" type="car" />
    <trip id="two_wheeler74" depart="222.00" from="391534135#6" to="24577487#3" type="two_wheeler" />
    <trip id="car56" depart="224.00" from="579781481#0" to="564223496" type="car" />
    <trip id="three_wheeler28" depart="224.00" from="-1466163953" to="24577488#6" type="three_wheeler" />
    <trip id="two_wheeler75" depart="225.00" from="-391534135#0" to="564223496" type="two_wheeler" />
    <trip id="two_wheeler76" depart="228.00" from="23133600#7" to="596373332#1" type="two_wheeler" />
    <trip id="car57" depart="228.00" from="23133600#2" to="174274680#2" type="car" />
    <trip id="bus19" depart="228.00" from="-1120299304" to="24577482#2" type="bus" />
    <trip id="two_wheeler77" depart="231.00" from="28103794#0" to="578543603#3" type="two_wheeler" />
    <trip id="car58" depart="232.00" from="28103794#0" to="23133600#10" type="car" />
    <trip id="three_wheeler29" depart="232.00" from="-1466163953" to="24577488#6" type="three_wheeler" />
    <trip id="two_wheeler78" depart="234.00" from="80499778#0" to="391534135#2" type="two_wheeler" />
    <trip id="car59" depart="236.00" from="23133709#0" to="24577480#4" type="car" />
    <trip id="two_wheeler79" depart="237.00" from="23133600#5" to="24577488#6" type="two_wheeler" />
    <trip id="two_wheeler80" depart="240.00" from="80499778#0" to="-164675827#0" type="two_wheeler" />
    <trip id="car60" depart="240.00" from="-1466163953" to="24577487#3" type="car" />
    <trip id="three_wheeler30" depart="240.00" from="24582921#1" to="24577488#6" type="three_wheeler" />
    <trip id="bus20" depart="240.00" from="-1466163953" to="-24582921#0" type="bus" />
    <trip id="ambulance2" depart="240.00" from="24582921#0" to="1120299304" type="ambulance" />
    <trip id="two_wheeler81" depart="243.00" from="563679821" to="24577487#3" type="two_wheeler" />
    <trip id="car61" depart="244.00" from="-1120299304" to="1278775921#1" type="car" />
    <trip id="two_wheeler82" depart="246.00" from="24577486#0" to="23133600#2" type="two_wheeler" />
    <trip id="car62" depart="248.00" from="24577482#0" to="1386548336" type="car" />
    <trip id="three_wheeler31" depart="248.00" from="-1466163953" to="24577488#6" type="three_wheeler" />
    <trip id="two_wheeler83" depart="249.00" from="164675827#5" to="564223496" type="two_wheeler" />
    <trip id="two_wheeler84" depart="252.00" from="707566696#1" to="1120299304" type="two_wheeler" />
    <trip id="car63" depart="252.00" from="707566696#0" to="570616028#0" type="car" />
    <trip id="bus21" depart="252.00" from="80499778#3" to="23133709#0" type="bus" />
    <trip id="two_wheeler85" depart="255.00" from="24577482#0" to="-391534135#1" type="two_wheeler" />
    <trip id="car64" depart="256.00" from="-1466163953" to="570616026#5" type="car" />
    <trip id="three_wheeler32" depart="256.00" from="707566696#0" to="-24582921#0" type="three_wheeler" />
    <trip id="two_wheeler86" depart="258.00" from="-1466163953" to="596373332#1" type="two_wheeler" />
    <trip id="car65" depart="260.00" from="24577482#0" to="24577487#1" type="car" />
    <trip id="two_wheeler87" depart="261.00" from="23133600#14" to="24577488#6" type="two_wheeler" />
    <trip id="two_wheeler88" depart="264.00" from="-1120299304" to="570616026#5" type="two_wheeler" />
    <trip id="car66" depart="264.00" from="579781481#0" to="24582917" type="car" />
    <trip id="three_wheeler33" depart="264.00" from="707566696#0" to="562340241" type="three_wheeler" />
    <trip id="bus22" depart="264.00" from="28103794#0" to="-707566696#0" type="bus" />
    <trip id="two_wheeler89" depart="267.00" from="23133709#1" to="24582917" type="two_wheeler" />
    <trip id="car67" depart="268.00" from="23133600#5" to="24577480#3" type="car" />
    <trip id="two_wheeler90" depart="270.00" from="391534135#3" to="570616026#5" type="two_wheeler" />
    <trip id="car68" depart="272.00" from="579781481#0" to="1278775921#1" type="car" />
    <trip id="three_wheeler34" depart="272.00" from="707566696#0" to="391534135#2" type="three_wheeler" />
    <trip id="two_wheeler91" depart="273.00" from="563679821" to="23133600#15" type="two_wheeler" />
    <trip id="two_wheeler92" depart="276.00" from="174274680#0" to="174274680#1" type="two_wheeler" />
    <trip id="car69" depart="276.00" from="23133600#4" to="24577488#3" type="car" />
    <trip id="bus23" depart="276.00" from="23133600#4" to="24577480#0" type="bus" />
    <trip id="two_wheeler93" depart="279.00" from="24582921#0" to="23133709#2" type="two_wheeler" />
    <trip id="car70" depart="280.00" from="570616026#1" to="23133600#4" type="car" />
    <trip id="three_wheeler35" depart="280.00" from="579781481#0" to="24577483#2" type="three_wheeler" />
    <trip id="two_wheeler94" depart="282.00" from="23133600#3" to="-103176785" type="two_wheeler" />
    <trip id="car71" depart="284.00" from="24582921#1" to="24582917" type="car" />
    <trip id="two_wheeler95" depart="285.00" from="253307767#1" to="1278775921#1" type="two_wheeler" />
    <trip id="two_wheeler96" depart="288.00" from="164675827#2" to="564223496" type="two_wheeler" />
    <trip id="car72" depart="288.00" from="28103794#0" to="24577488#6" type="car" />
    <trip id="three_wheeler36" depart="288.00" from="80499778#0" to="24577487#3" type="three_wheeler" />
    <trip id="bus24" depart="288.00" from="80499778#0" to="-24582921#0" type="bus" />
    <trip id="two_wheeler97" depart="291.00" from="174274680#1" to="23133600#7" type="two_wheeler" />
    <trip id="car73" depart="292.00" from="579781481#1" to="24582917" type="car" />
    <trip id="two_wheeler98" depart="294.00" from="707566696#0" to="-24582921#0" type="two_wheeler" />
    <trip id="car74" depart="296.00" from="579781481#0" to="24577488#6" type="car" />
    <trip id="three_wheeler37" depart="296.00" from="707566696#0" to="23133600#2" type="three_wheeler" />
    <trip id="two_wheeler99" depart="297.00" from="24577483#1" to="1386548336" type="two_wheeler" />
    <trip id="two_wheeler100" depart="300.00" from="707566696#0" to="24577480#2" type="two_wheeler" />
    <trip id="car75" depart="300.00" from="24577480#3" to="-707566696#0" type="car" />
    <trip id="bus25" depart="300.00" from="-1120299304" to="-24582921#0" type="bus" />
    <trip id="two_wheeler101" depart="303.00" from="-1466163953" to="23133600#7" type="two_wheeler" />
    <trip id="car76" depart="304.00" from="28103794#0" to="24577486#3" type="car" />
    <trip id="three_wheeler38" depart="304.00" from="596373332#0" to="-391534135#4" type="three_wheeler" />
    <trip id="two_wheeler102" depart="306.00" from="24577483#2" to="578543603#3" type="two_wheeler" />
    <trip id="car77" depart="308.00" from="391534135#2" to="1120299304" type="car" />
    <trip id="two_wheeler103" depart="309.00" from="28103794#0" to="1120299304" type="two_wheeler" />
    <trip id="two_wheeler104" depart="312.00" from="570616026#1" to="24577488#0" type="two_wheeler" />
    <trip id="car78" depart="312.00" from="391534135#2" to="1386548336" type="car" />
    <trip id="three_wheeler39" depart="312.00" from="28103794#0" to="1386548336" type="three_wheeler" />
    <trip id="bus26" depart="312.00" from="707566696#0" to="24577488#3" type="bus" />
    <trip id="two_wheeler105" depart="315.00" from="707566696#0" to="24582917" type="two_wheeler" />
    <trip id="car79" depart="316.00" from="28103794#0" to="-707566696#1" type="car" />
    <trip id="two_wheeler106" depart="318.00" from="24577482#0" to="596373332#1" type="two_wheeler" />
    <trip id="car80" depart="320.00" from="24582921#0" to="23133709#0" type="car" />
    <trip id="three_wheeler40" depart="320.00" from="563679821" to="570616026#5" type="three_wheeler" />
    <trip id="two_wheeler107" depart="321.00" from="579781481#0" to="24577487#3" type="two_wheeler" />
    <trip id="two_wheeler108" depart="324.00" from="80499778#0" to="253307767#3" type="two_wheeler" />
    <trip id="car81" depart="324.00" from="391534135#5" to="23133600#6" type="car" />
    <trip id="bus27" depart="324.00" from="579781481#0" to="1120299304" type="bus" />
    <trip id="two_wheeler109" depart="327.00" from="391534135#5" to="-103176785" type="two_wheeler" />
    <trip id="car82" depart="328.00" from="24577483#2" to="391534135#4" type="car" />
    <trip id="three_wheeler41" depart="328.00" from="-1120299304" to="24577488#1" type="three_wheeler" />
    <trip id="two_wheeler110" depart="330.00" from="1375201075" to="578543603#3" type="two_wheeler" />
    <trip id="car83" depart="332.00" from="174274680#1" to="24582917" type="car" />
    <trip id="two_wheeler111" depart="333.00" from="579781481#1" to="23133600#6" type="two_wheeler" />
    <trip id="two_wheeler112" depart="336.00" from="707566696#0" to="80499778#2" type="two_wheeler" />
    <trip id="car84" depart="336.00" from="24577480#2" to="1375201075" type="car" />
    <trip id="three_wheeler42" depart="336.00" from="579781481#0" to="578543603#3" type="three_wheeler" />
    <trip id="bus28" depart="336.00" from="23133600#9" to="23133709#3" type="bus" />
    <trip id="two_wheeler113" depart="339.00" from="707566696#0" to="1278775921#1" type="two_wheeler" />
    <trip id="car85" depart="340.00" from="164675827#0" to="564223496" type="car" />
    <trip id="two_wheeler114" depart="342.00" from="80499778#0" to="253307767#4" type="two_wheeler" />
    <trip id="car86" depart="344.00" from="253307767#2" to="1278775921#1" type="car" />
    <trip id="three_wheeler43" depart="344.00" from="80499778#0" to="23133600#11" type="three_wheeler" />
    <trip id="two_wheeler115" depart="345.00" from="24582921#0" to="391534135#5" type="two_wheeler" />
    <trip id="two_wheeler116" depart="348.00" from="23133600#4" to="24577487#3" type="two_wheeler" />
    <trip id="car87" depart="348.00" from="391534135#2" to="24577482#1" type="car" />
    <trip id="bus29" depart="348.00" from="-1466163953" to="24577487#3" type="bus" />
    <trip id="two_wheeler117" depart="351.00" from="707566696#1" to="578543603#3" type="two_wheeler" />
    <trip id="car88" depart="352.00" from="164675827#0" to="391534135#2" type="car" />
    <trip id="three_wheeler44" depart="352.00" from="23133600#8" to="1375201075" type="three_wheeler" />
    <trip id="two_wheeler118" depart="354.00" from="-1466163953" to="1278775921#1" type="two_wheeler" />
    <trip id="car89" depart="356.00" from="28103794#0" to="-24582921#0" type="car" />
    <trip id="two_wheeler119" depart="357.00" from="707566696#0" to="23133709#1" type="two_wheeler" />
    <trip id="two_wheeler120" depart="360.00" from="253307767#0" to="578543603#2" type="two_wheeler" />
    <trip id="car90" depart="360.00" from="707566696#0" to="24582917" type="car" />
    <trip id="three_wheeler45" depart="360.00" from="24577483#1" to="24577488#6" type="three_wheeler" />
    <trip id="bus30" depart="360.00" from="24577483#1" to="23133600#1" type="bus" />
    <trip id="ambulance3" depart="360.00" from="24582921#0" to="1120299304" type="ambulance" />
    <trip id="two_wheeler121" depart="363.00" from="-1466163953" to="24577488#5" type="two_wheeler" />
    <trip id="car91" depart="364.00" from="253307767#0" to="760480737" type="car" />
    <trip id="two_wheeler122" depart="366.00" from="-1120299304" to="596373332#1" type="two_wheeler" />
    <trip id="car92" depart="368.00" from="80499778#0" to="1386548336" type="car" />
    <trip id="three_wheeler46" depart="368.00" from="-1466163953" to="24582917" type="three_wheeler" />
    <trip id="two_wheeler123" depart="369.00" from="23133600#2" to="1278775921#1" type="two_wheeler" />
    <trip id="two_wheeler124" depart="372.00" from="-1466163953" to="23133600#0" type="two_wheeler" />
    <trip id="car93" depart="372.00" from="24577480#0" to="564223496" type="car" />
    <trip id="bus31" depart="372.00" from="579781481#0" to="564223496" type="bus" />
    <trip id="two_wheeler125" depart="375.00" from="707566696#0" to="23133600#9" type="two_wheeler" />
    <trip id="car94" depart="376.00" from="24582921#0" to="-707566696#0" type="car" />
    <trip id="three_wheeler47" depart="376.00" from="-1466163953" to="174274680#1" type="three_wheeler" />
    <trip id="two_wheeler126" depart="378.00" from="-1466163953" to="579781481#1" type="two_wheeler" />
    <trip id="car95" depart="380.00" from="28103794#0" to="23133600#12" type="car" />
    <trip id="two_wheeler127" depart="381.00" from="23133709#2" to="24577487#3" type="two_wheeler" />
    <trip id="two_wheeler128" depart="384.00" from="23133600#10" to="1386548336" type="two_wheeler" />
    <trip id="car96" depart="384.00" from="24577486#0" to="253307767#3" type="car" />
    <trip id="three_wheeler48" depart="384.00" from="579781481#0" to="596373332#1" type="three_wheeler" />
    <trip id="bus32" depart="384.00" from="23133600#0" to="24582917" type="bus" />