<?xml version='1.0' encoding='utf-8'?>
<routes xmlns:xsi="http://www.w3.org/2001/XMLSchema-instance" xsi:noNamespaceSchemaLocation="http://sumo.dlr.de/xsd/routes_file.xsd">
    <trip id="two_wheeler0" depart="0.00" from="707566696#0" to="-103176785" type="two_wheeler" />
    <trip id="car0" depart="0.00" from="-1120299304" to="570616026#5" type="car" />
    <trip id="three_wheeler0" depart="0.00" from="24577480#1" to="23133600#15" type="three_wheeler" />
    <trip id="e_rickshaw0" depart="0.00" from="80499778#2" to="23133709#0" type="e_rickshaw" />
    <trip id="cycle_rickshaw0" depart="0.00" from="-1154173903" to="24577488#3" type="cycle_rickshaw" />
    <trip id="bus0" depart="0.00" from="24577482#2" to="23133600#1" type="bus" />
    <trip id="truck0" depart="0.00" from="596373346" to="24577487#2" type="truck" />
    <trip id="ambulance0" depart="0.00" from="24577482#2" to="23133600#10" type="ambulance" />
    <person id="ped_0" depart="0.14" type="pedestrian">
        <walk from="1119548724" to="1119548722" />
    </person>
    <person id="ped_1" depart="1.52" type="pedestrian_slow">
        <walk from="1302777699#0" to="1234918818#1" />
    </person>
    <trip id="two_wheeler1" depart="1.80" from="563679821" to="391534135#0" type="two_wheeler" />
    <trip id="car1" depart="2.80" from="579781481#0" to="23133600#5" type="car" />
    <trip id="two_wheeler2" depart="3.60" from="24582921#0" to="570616026#5" type="two_wheeler" />
    <person id="ped_2" depart="3.99" type="pedestrian">
        <walk from="583501528#1" to="1000443878" />
    </person>
    <person id="ped_3" depart="4.93" type="pedestrian">
        <walk from="1233744938#4" to="1234918808#0" />
    </person>
    <trip id="three_wheeler1" depart="5.00" from="80499778#0" to="24577487#3" type="three_wheeler" />
    <trip id="two_wheeler3" depart="5.40" from="563679821" to="578543603#3" type="two_wheeler" />
    <trip id="car2" depart="5.60" from="-1466163953" to="253307767#0" type="car" />
    <person id="ped_4" depart="6.73" type="pedestrian">
        <walk from="1290403899" to="80499763#2" />
    </person>
    <trip id="two_wheeler4" depart="7.20" from="707566696#0" to="24577487#3" type="two_wheeler" />
    <trip id="e_rickshaw1" depart="7.50" from="-1466163953" to="562340241" type="e_rickshaw" />
    <trip id="car3" depart="8.40" from="707566696#0" to="23133600#7" type="car" />
    <trip id="two_wheeler5" depart="9.00" from="563679821" to="23133600#3" type="two_wheeler" />
    <trip id="bus1" depart="9.00" from="-1466163953" to="-391534135#0" type="bus" />
    <person id="ped_5" depart="9.04" type="pedestrian">
        <walk from="660372919#1" to="1119548724" />
    </person>
    <trip id="three_wheeler2" depart="10.00" from="80499778#0" to="24577488#1" type="three_wheeler" />
    <trip id="two_wheeler6" depart="10.80" from="-1466163953" to="578543603#3" type="two_wheeler" />
    <person id="ped_6" depart="11.11" type="pedestrian">
        <walk from="583501524" to="1119548718" />
    </person>
    <trip id="car4" depart="11.20" from="80499778#0" to="-707566696#0" type="car" />
    <trip id="cycle_rickshaw1" depart="12.00" from="-1120299304" to="1121143476" type="cycle_rickshaw" />
    <trip id="two_wheeler7" depart="12.60" from="391534135#3" to="-707566696#0" type="two_wheeler" />
    <person id="ped_7" depart="12.80" type="pedestrian">
        <walk from="1119548717" to="1119548721#0" />
    </person>
    <trip id="car5" depart="14.00" from="23133600#1" to="578543603#3" type="car" />
    <trip id="two_wheeler8" depart="14.40" from="707566696#0" to="391534135#3" type="two_wheeler" />
    <person id="ped_8" depart="14.86" type="pedestrian">
        <walk from="1119548714" to="1119548736" />
    </person>
    <trip id="three_wheeler3" depart="15.00" from="23133600#10" to="1120299304" type="three_wheeler" />
    <trip id="e_rickshaw2" depart="15.00" from="24577482#1" to="570616027" type="e_rickshaw" />
    <person id="ped_9" depart="15.80" type="pedestrian_fast">
        <walk from="1234918808#0" to="1119548723" />
    </person>
    <trip id="two_wheeler9" depart="16.20" from="-1120299304" to="-24582921#0" type="two_wheeler" />
    <trip id="car6" depart="16.80" from="23133709#0" to="-707566696#0" type="car" />
    <trip id="two_wheeler10" depart="18.00" from="578543603#0" to="578543603#3" type="two_wheeler" />
    <trip id="bus2" depart="18.00" from="391534135#5" to="23133600#13" type="bus" />
    <person id="ped_10" depart="18.31" type="pedestrian_slow">
        <walk from="778204111#1" to="1119548715#1" />
    </person>
    <trip id="car7" depart="19.60" from="23133709#3" to="80499778#2" type="car" />
    <trip id="two_wheeler11" depart="19.80" from="24582921#0" to="24582917" type="two_wheeler" />
    <trip id="three_wheeler4" depart="20.00" from="24582921#0" to="564223496" type="three_wheeler" />
    <trip id="truck1" depart="20.00" from="24577486#3" to="164675827#0" type="truck" />
    <person id="ped_11" depart="20.27" type="pedestrian">
        <walk from="1393736863" to="1119548725" />
    </person>
    <trip id="two_wheeler12" depart="21.60" from="28103794#0" to="-707566696#0" type="two_wheeler" />
    <person id="ped_12" depart="21.93" type="pedestrian_slow">
        <walk from="164675812#1" to="1119548735" />
    </person>
    <trip id="car8" depart="22.40" from="-1466163953" to="23133709#4" type="car" />
    <trip id="e_rickshaw3" depart="22.50" from="707566696#0" to="1386548336" type="e_rickshaw" />
    <trip id="two_wheeler13" depart="23.40" from="23133709#1" to="24577480#0" type="two_wheeler" />
    <person id="ped_13" depart="23.48" type="pedestrian_slow">
        <walk from="1000443878" to="1300354458" />
    </person>
    <trip id="cycle_rickshaw2" depart="24.00" from="563679821" to="1306328987" type="cycle_rickshaw" />
    <person id="ped_14" depart="24.93" type="pedestrian">
        <walk from="1119548714" to="80499763#7" />
    </person>
    <trip id="three_wheeler5" depart="25.00" from="707566696#0" to="-391534135#2" type="three_wheeler" />
    <trip id="two_wheeler14" depart="25.20" from="80499778#0" to="1120299304" type="two_wheeler" />
    <trip id="car9" depart="25.20" from="174274680#2" to="24577488#3" type="car" />
    <person id="ped_15" depart="26.73" type="pedestrian">
        <walk from="1119548724" to="164675821#0" />
    </person>
    <trip id="two_wheeler15" depart="27.00" from="253307767#0" to="24577487#3" type="two_wheeler" />
    <trip id="bus3" depart="27.00" from="596373332#0" to="1278775921#1" type="bus" />
    <trip id="car10" depart="28.00" from="80499778#0" to="24577488#6" type="car" />
    <trip id="two_wheeler16" depart="28.80" from="24577482#1" to="-24582921#0" type="two_wheeler" />
    <person id="ped_16" depart="28.94" type="pedestrian">
        <walk from="1119548735" to="1119548734" />
    </person>
    <trip id="three_wheeler6" depart="30.00" from="164675827#1" to="24577482#2" type="three_wheeler" />
    <trip id="e_rickshaw4" depart="30.00" from="570616026#2" to="-24582921#0" type="e_rickshaw" />
    <person id="ped_17" depart="30.31" type="pedestrian">
        <walk from="1302777699#0" to="1290403899" />
    </person>
    <trip id="two_wheeler17" depart="30.60" from="570616026#1" to="24577486#3" type="two_wheeler" />
    <trip id="car11" depart="30.80" from="-1466163953" to="-391534135#2" type="car" />
    <person id="ped_18" depart="31.97" type="pedestrian_slow">
        <walk from="778204111#1" to="582355769#1" />
    </person>
    <trip id="two_wheeler18" depart="32.40" from="23133600#2" to="-707566696#0" type="two_wheeler" />
    <trip id="car12" depart="33.60" from="391534135#6" to="-103176785" type="car" />
    <person id="ped_19" depart="33.94" type="pedestrian">
        <walk from="1119548724" to="164675823#0" />
    </person>
    <trip id="two_wheeler19" depart="34.20" from="24582921#1" to="24577488#6" type="two_wheeler" />
    <trip id="three_wheeler7" depart="35.00" from="28103794#0" to="570616026#5" type="three_wheeler" />
    <trip id="two_wheeler20" depart="36.00" from="28103794#0" to="164675827#3" type="two_wheeler" />
    <trip id="cycle_rickshaw3" depart="36.00" from="-1175380916#4" to="-24582921#0" type="cycle_rickshaw" />
    <trip id="bus4" depart="36.00" from="164675827#2" to="23133600#6" type="bus" />
    <person id="ped_20" depart="36.19" type="pedestrian">
        <walk from="1119548727" to="582349040" />
    </person>
    <trip id="car13" depart="36.40" from="391534135#1" to="564223496" type="car" />
    <trip id="e_rickshaw5" depart="37.50" from="23133709#0" to="570616026#5" type="e_rickshaw" />
    <trip id="two_wheeler21" depart="37.80" from="80499778#0" to="-164675827#1" type="two_wheeler" />
    <person id="ped_21" depart="38.07" type="pedestrian">
        <walk from="164675811#1" to="1000443878" />
    </person>
    <trip id="car14" depart="39.20" from="24577483#0" to="562340241" type="car" />
    <trip id="two_wheeler22" depart="39.60" from="707566696#0" to="-391534135#5" type="two_wheeler" />
    <person id="ped_22" depart="39.91" type="pedestrian">
        <walk from="1010477871" to="1119548721#0" />
    </person>
    <trip id="three_wheeler8" depart="40.00" from="579781481#0" to="-253307767#0" type="three_wheeler" />
    <trip id="truck2" depart="40.00" from="707566696#0" to="24582917" type="truck" />
    <trip id="two_wheeler23" depart="41.40" from="391534135#0" to="578543603#0" type="two_wheeler" />
    <person id="ped_23" depart="41.81" type="pedestrian_slow">
        <walk from="1234918817#1" to="1119548727" />
    </person>
    <trip id="car15" depart="42.00" from="-1120299304" to="24577488#6" type="car" />
    <person id="ped_24" depart="42.91" type="pedestrian">
        <walk from="1290403899" to="164675821#0" />
    </person>
    <trip id="two_wheeler24" depart="43.20" from="707566696#0" to="24577486#2" type="two_wheeler" />
    <person id="ped_25" depart="44.64" type="pedestrian">
        <walk from="1234918818#1" to="1393736863" />
    </person>
    <trip id="car16" depart="44.80" from="596373332#0" to="1386548336" type="car" />
    <trip id="two_wheeler25" depart="45.00" from="563679821" to="24577487#3" type="two_wheeler" />
    <trip id="three_wheeler9" depart="45.00" from="28103794#0" to="578543603#0" type="three_wheeler" />
    <trip id="e_rickshaw6" depart="45.00" from="391534135#3" to="1120299304" type="e_rickshaw" />
    <trip id="bus5" depart="45.00" from="391534135#3" to="24582917" type="bus" />
    <trip id="two_wheeler26" depart="46.80" from="-1466163953" to="-103176785" type="two_wheeler" />
    <person id="ped_26" depart="46.84" type="pedestrian_slow">
        <walk from="583501528#1" to="660372919#1" />
    </person>
    <trip id="car17" depart="47.60" from="570616026#1" to="174274680#2" type="car" />
    <trip id="cycle_rickshaw4" depart="48.00" from="-1120299304" to="1253829873" type="cycle_rickshaw" />
    <person id="ped_27" depart="48.50" type="pedestrian">
        <walk from="1119548716" to="1233744938#4" />
    </person>
    <trip id="two_wheeler27" depart="48.60" from="28103794#0" to="-103176785" type="two_wheeler" />
    <trip id="three_wheeler10" depart="50.00" from="563679821" to="253307767#4" type="three_wheeler" />
    <person id="ped_28" depart="50.39" type="pedestrian_fast">
        <walk from="164675812#1" to="1119548715#1" />
    </person>
    <trip id="two_wheeler28" depart="50.40" from="23133600#0" to="24577487#0" type="two_wheeler" />
    <trip id="car18" depart="50.40" from="707566696#0" to="24577487#3" type="car" />
    <person id="ped_29" depart="51.85" type="pedestrian">
        <walk from="1302777699#0" to="583501528#1" />
    </person>
    <trip id="two_wheeler29" depart="52.20" from="28103794#0" to="564223496" type="two_wheeler" />
    <trip id="e_rickshaw7" depart="52.50" from="253307767#2" to="570616026#5" type="e_rickshaw" />
    <trip id="car19" depart="53.20" from="24582921#0" to="-707566696#1" type="car" />
    <trip id="two_wheeler30" depart="54.00" from="23133709#0" to="24577487#3" type="two_wheeler" />
    <trip id="bus6" depart="54.00" from="24577480#4" to="1120299304" type="bus" />
    <person id="ped_30" depart="54.10" type="pedestrian">
        <walk from="1234918808#0" to="164675821#0" />
    </person>
    <trip id="three_wheeler11" depart="55.00" from="563679821" to="570616026#4" type="three_wheeler" />
    <trip id="two_wheeler31" depart="55.80" from="391534135#3" to="80499778#3" type="two_wheeler" />
    <person id="ped_31" depart="55.83" type="pedestrian_fast">
        <walk from="164675812#1" to="1000443874" />
    </person>
    <trip id="car20" depart="56.00" from="174274680#1" to="-24582921#0" type="car" />
    <trip id="two_wheeler32" depart="57.60" from="24582921#0" to="1386548336" type="two_wheeler" />
    <person id="ped_32" depart="57.78" type="pedestrian">
        <walk from="778204111#1" to="1466288327#1" />
    </person>
    <trip id="car21" depart="58.80" from="-1466163953" to="23133600#14" type="car" />
    <person id="ped_33" depart="59.17" type="pedestrian_slow">
        <walk from="1119548715#1" to="1119548725" />
    </person>
    <trip id="two_wheeler33" depart="59.40" from="28103794#0" to="1375201075" type="two_wheeler" />
    <trip id="three_wheeler12" depart="60.00" from="28103794#0" to="578543603#3" type="three_wheeler" />
    <trip id="e_rickshaw8" depart="60.00" from="24577483#2" to="596373332#1" type="e_rickshaw" />
    <trip id="cycle_rickshaw5" depart="60.00" from="24577483#0" to="164675827#4" type="cycle_rickshaw" />
    <trip id="truck3" depart="60.00" from="707566696#1" to="562340243" type="truck" />
    <person id="ped_34" depart="61.13" type="pedestrian">
        <walk from="582355769#1" to="1119548723" />
    </person>
    <trip id="two_wheeler34" depart="61.20" from="23133600#7" to="-103176785" type="two_wheeler" />
    <trip id="car22" depart="61.60" from="164675827#0" to="564223496" type="car" />
    <trip id="two_wheeler35" depart="63.00" from="-1466163953" to="-391534135#5" type="two_wheeler" />
    <trip id="bus7" depart="63.00" from="570616026#1" to="80499778#2" type="bus" />
    <person id="ped_35" depart="63.47" type="pedestrian_fast">
        <walk from="1233744938#4" to="1119548715#0" />
    </person>
    <trip id="car23" depart="64.40" from="28103794#0" to="-707566696#0" type="car" />
    <trip id="two_wheeler36" depart="64.80" from="24577482#1" to="23133600#11" type="two_wheeler" />
    <trip id="three_wheeler13" depart="65.00" from="596373332#0" to="570616026#5" type="three_wheeler" />
    <person id="ped_36" depart="65.17" type="pedestrian">
        <walk from="164675823#0" to="1233744938#4" />
    </person>
    <trip id="two_wheeler37" depart="66.60" from="-1120299304" to="24577483#2" type="two_wheeler" />
    <person id="ped_37" depart="66.71" type="pedestrian">
        <walk from="1466288327#1" to="1119548718" />
    </person>
    <trip id="car24" depart="67.20" from="562340241" to="24577487#0" type="car" />
    <trip id="e_rickshaw9" depart="67.50" from="80499778#3" to="253307767#2" type="e_rickshaw" />
    <trip id="two_wheeler38" depart="68.40" from="-1466163953" to="23133600#12" type="two_wheeler" />
    <person id="ped_38" depart="68.44" type="pedestrian_fast">
        <walk from="164675822#0" to="1000443874" />
    </person>
    <trip id="car25" depart="70.00" from="562340241" to="23133600#2" type="car" />
    <trip id="three_wheeler14" depart="70.00" from="24577480#0" to="24577487#3" type="three_wheeler" />
    <trip id="two_wheeler39" depart="70.20" from="579781481#0" to="391534135#5" type="two_wheeler" />
    <person id="ped_39" depart="70.30" type="pedestrian">
        <walk from="1119548715#1" to="1119548735" />
    </person>
    <trip id="two_wheeler40" depart="72.00" from="-1120299304" to="-24582921#0" type="two_wheeler" />
    <trip id="cycle_rickshaw6" depart="72.00" from="1121145405#0" to="-706279260" type="cycle_rickshaw" />
    <trip id="bus8" depart="72.00" from="23133709#2" to="391534135#4" type="bus" />
    <person id="ped_40" depart="72.38" type="pedestrian_fast">
        <walk from="1119548726" to="1119548722" />
    </person>
    <trip id="car26" depart="72.80" from="28103794#0" to="564223496" type="car" />
    <person id="ped_41" depart="73.36" type="pedestrian_fast">
        <walk from="1119548714" to="582355769#1" />
    </person>
    <trip id="two_wheeler41" depart="73.80" from="563679821" to="564223496" type="two_wheeler" />
    <trip id="three_wheeler15" depart="75.00" from="23133600#12" to="24577487#3" type="three_wheeler" />
    <trip id="e_rickshaw10" depart="75.00" from="-1120299304" to="-391534135#6" type="e_rickshaw" />
    <person id="ped_42" depart="75.59" type="pedestrian">
        <walk from="1466288327#1" to="778204111#1" />
    </person>
    <trip id="two_wheeler42" depart="75.60" from="174274680#0" to="24577488#6" type="two_wheeler" />
    <trip id="car27" depart="75.60" from="24582921#0" to="23133600#0" type="car" />
    <trip id="two_wheeler43" depart="77.40" from="24582921#0" to="253307767#2" type="two_wheeler" />
    <person id="ped_43" depart="77.67" type="pedestrian">
        <walk from="80499772#1" to="1393736863" />
    </person>
    <trip id="car28" depart="78.40" from="24582921#0" to="24582917" type="car" />
    <person id="ped_44" depart="78.87" type="pedestrian">
        <walk from="1234918808#0" to="583501528#1" />
    </person>
    <trip id="two_wheeler44" depart="79.20" from="23133709#1" to="164675827#2" type="two_wheeler" />
    <trip id="three_wheeler16" depart="80.00" from="563679821" to="-24582921#0" type="three_wheeler" />
    <trip id="truck4" depart="80.00" from="-1466163953" to="24577483#2" type="truck" />
    <trip id="two_wheeler45" depart="81.00" from="80499778#2" to="-391534135#0" type="two_wheeler" />
    <trip id="bus9" depart="81.00" from="596373332#0" to="391534135#3" type="bus" />
    <trip id="car29" depart="81.20" from="579781481#0" to="174274680#0" type="car" />
    <person id="ped_45" depart="81.46" type="pedestrian_fast">
        <walk from="1466288327#1" to="582355769#1" />
    </person>
    <trip id="e_rickshaw11" depart="82.50" from="28103794#0" to="578543603#1" type="e_rickshaw" />
    <trip id="two_wheeler46" depart="82.80" from="707566696#0" to="-24582921#0" type="two_wheeler" />
    <person id="ped_46" depart="82.99" type="pedestrian_slow">
        <walk from="1119638714" to="1300354458" />
    </person>
    <trip id="car30" depart="84.00" from="579781481#0" to="-707566696#0" type="car" />
    <trip id="cycle_rickshaw7" depart="84.00" from="1175380916#0" to="1466621305" type="cycle_rickshaw" />
    <trip id="two_wheeler47" depart="84.60" from="80499778#0" to="24577488#2" type="two_wheeler" />
    <person id="ped_47" depart="84.75" type="pedestrian">
        <walk from="164675822#0" to="660372880#3" />
    </person>
    <trip id="three_wheeler17" depart="85.00" from="707566696#0" to="564223496" type="three_wheeler" />
    <person id="ped_48" depart="86.02" type="pedestrian">
        <walk from="1119548733" to="1000443877" />
    </person>
    <trip id="two_wheeler48" depart="86.40" from="23133600#1" to="24577488#6" type="two_wheeler" />
    <trip id="car31" depart="86.80" from="28103794#0" to="24577487#3" type="car" />
    <trip id="two_wheeler49" depart="88.20" from="28103794#0" to="-707566696#0" type="two_wheeler" />
    <person id="ped_49" depart="88.29" type="pedestrian">
        <walk from="1119548721#1" to="1000443874" />
    </person>
    <person id="ped_50" depart="89.57" type="pedestrian_slow">
        <walk from="1119548721#1" to="1010477871" />
    </person>
    <trip id="car32" depart="89.60" from="391534135#3" to="1120299304" type="car" />
    <trip id="two_wheeler50" depart="90.00" from="23133709#4" to="253307767#4" type="two_wheeler" />
    <trip id="three_wheeler18" depart="90.00" from="80499778#0" to="596373332#1" type="three_wheeler" />
    <trip id="e_rickshaw12" depart="90.00" from="391534135#6" to="578543603#3" type="e_rickshaw" />
    <trip id="bus10" depart="90.00" from="164675827#5" to="23133600#1" type="bus" />
    <trip id="ambulance1" depart="90.00" from="24577480#1" to="596373332#1" type="ambulance" />
    <trip id="two_wheeler51" depart="91.80" from="707566696#0" to="-24582921#1" type="two_wheeler" />
    <person id="ped_51" depart="92.21" type="pedestrian_fast">
        <walk from="1010477871" to="1233744938#4" />
    </person>
    <trip id="car33" depart="92.40" from="391534135#0" to="564223496" type="car" />
    <person id="ped_52" depart="93.34" type="pedestrian_slow">
        <walk from="1119548721#0" to="778204111#1" />
    </person>
    <trip id="two_wheeler52" depart="93.60" from="80499778#0" to="596373332#1" type="two_wheeler" />
    <trip id="three_wheeler19" depart="95.00" from="-1120299304" to="391534135#2" type="three_wheeler" />
    <person id="ped_53" depart="95.03" type="pedestrian_fast">
        <walk from="611102337" to="80499772#1" />
    </person>
    <trip id="car34" depart="95.20" from="707566696#0" to="-24582921#0" type="car" />
    <trip id="two_wheeler53" depart="95.40" from="707566696#1" to="24577482#2" type="two_wheeler" />
    <trip id="cycle_rickshaw8" depart="96.00" from="164675827#1" to="24582917" type="cycle_rickshaw" />
    <person id="ped_54" depart="96.94" type="pedestrian">
        <walk from="1119638715" to="1119548720" />
    </person>
    <trip id="two_wheeler54" depart="97.20" from="579781481#0" to="174274680#1" type="two_wheeler" />
    <trip id="e_rickshaw13" depart="97.50" from="24577482#1" to="-103176785" type="e_rickshaw" />
    <trip id="car35" depart="98.00" from="24577480#1" to="23133600#8" type="car" />
    <person id="ped_55" depart="98.59" type="pedestrian_slow">
        <walk from="1119548734" to="583501528#1" />
    </person>
    <trip id="two_wheeler55" depart="99.00" from="391534135#0" to="-707566696#0" type="two_wheeler" />
    <trip id="bus11" depart="99.00" from="23133709#0" to="570616026#5" type="bus" />
    <trip id="three_wheeler20" depart="100.00" from="579781481#0" to="24582917" type="three_wheeler" />
    <trip id="truck5" depart="100.00" from="23133600#3" to="24577486#3" type="truck" />
    <person id="ped_56" depart="100.71" type="pedestrian_fast">
        <walk from="1001015117#0" to="1302777699#0" />
    </person>
    <trip id="two_wheeler56" depart="100.80" from="579781481#0" to="-24582921#0" type="two_wheeler" />
    <trip id="car36" depart="100.80" from="563679821" to="23133709#3" type="car" />
    <trip id="two_wheeler57" depart="102.60" from="-1466163953" to="596373332#1" type="two_wheeler" />
    <person id="ped_57" depart="102.75" type="pedestrian_slow">
        <walk from="1001015117#0" to="1119638714" />
    </person>
    <trip id="car37" depart="103.60" from="80499778#0" to="24582917" type="car" />
    <trip id="two_wheeler58" depart="104.40" from="-1466163953" to="-24582921#0" type="two_wheeler" />
    <person id="ped_58" depart="104.63" type="pedestrian_fast">
        <walk from="1119548715#0" to="1119548722" />
    </person>
    <trip id="three_wheeler21" depart="105.00" from="570616026#2" to="24577488#6" type="three_wheeler" />
    <trip id="e_rickshaw14" depart="105.00" from="28103794#0" to="-24582921#0" type="e_rickshaw" />
    <person id="ped_59" depart="105.89" type="pedestrian">
        <walk from="1119548716" to="583501528#1" />
    </person>
    <trip id="two_wheeler59" depart="106.20" from="23133709#3" to="564223496" type="two_wheeler" />
    <trip id="car38" depart="106.40" from="596373332#1" to="596373332#1" type="car" />
    <person id="ped_60" depart="107.68" type="pedestrian">
        <walk from="164675812#1" to="1010477871" />
    </person>
    <trip id="two_wheeler60" depart="108.00" from="707566696#0" to="23133600#6" type="two_wheeler" />
    <trip id="cycle_rickshaw9" depart="108.00" from="-1306152424#1" to="-1121147797#1" type="cycle_rickshaw" />
    <trip id="bus12" depart="108.00" from="28103794#0" to="24577488#4" type="bus" />
    <trip id="car39" depart="109.20" from="-1466163953" to="23133600#5" type="car" />
    <person id="ped_61" depart="109.74" type="pedestrian_fast">
        <walk from="1393736863" to="1119548715#0" />
    </person>
    <trip id="two_wheeler61" depart="109.80" from="563679821" to="24577488#6" type="two_wheeler" />
    <trip id="three_wheeler22" depart="110.00" from="80499778#0" to="-391534135#6" type="three_wheeler" />
    <person id="ped_62" depart="111.15" type="pedestrian_fast">
        <walk from="582349040" to="1000443874" />
    </person>
    <trip id="two_wheeler62" depart="111.60" from="24577480#0" to="-707566696#0" type="two_wheeler" />
    <trip id="car40" depart="112.00" from="24582921#0" to="80499778#3" type="car" />
    <trip id="e_rickshaw15" depart="112.50" from="28103794#0" to="1278775921#1" type="e_rickshaw" />
    <trip id="two_wheeler63" depart="113.40" from="596373346" to="596373332#1" type="two_wheeler" />
    <person id="ped_63" depart="113.87" type="pedestrian_fast">
        <walk from="80499763#7" to="1119548722" />
    </person>
    <trip id="car41" depart="114.80" from="80499778#0" to="174274680#0" type="car" />
    <person id="ped_64" depart="114.87" type="pedestrian">
        <walk from="1119548721#0" to="164675812#1" />
    </person>
    <trip id="three_wheeler23" depart="115.00" from="80499778#0" to="24577483#2" type="three_wheeler" />
    <trip id="two_wheeler64" depart="115.20" from="562340241" to="1120299304" type="two_wheeler" />
    <person id="ped_65" depart="116.90" type="pedestrian">
        <walk from="1119548736" to="1000443874" />
    </person>
    <trip id="two_wheeler65" depart="117.00" from="391534135#6" to="578543603#1" type="two_wheeler" />
    <trip id="bus13" depart="117.00" from="563679821" to="570616028#0" type="bus" />
    <trip id="car42" depart="117.60" from="563679821" to="24577488#6" type="car" />
    <trip id="two_wheeler66" depart="118.80" from="23133600#8" to="564223496" type="two_wheeler" />
    <person id="ped_66" depart="119.29" type="pedestrian">
        <walk from="660372862" to="164675821#0" />
    </person>
    <trip id="three_wheeler24" depart="120.00" from="24577480#2" to="391534135#0" type="three_wheeler" />
    <trip id="e_rickshaw16" depart="120.00" from="28103794#0" to="23133600#9" type="e_rickshaw" />
    <trip id="cycle_rickshaw10" depart="120.00" from="563679821" to="24577486#0" type="cycle_rickshaw" />
    <trip id="truck6" depart="120.00" from="23133600#11" to="23133709#1" type="truck" />
    <person id="ped_67" depart="120.39" type="pedestrian_slow">
        <walk from="582355769#1" to="660372862" />
    </person>
    <trip id="car43" depart="120.40" from="24577482#1" to="-103176785" type="car" />
    <trip id="two_wheeler67" depart="120.60" from="80499778#3" to="1278775921#1" type="two_wheeler" />
    <trip id="two_wheeler68" depart="122.40" from="28103794#0" to="-707566696#0" type="two_wheeler" />
    <person id="ped_68" depart="122.46" type="pedestrian_slow">
        <walk from="1119548717" to="1119548720" />
    </person>
    <trip id="car44" depart="123.20" from="24582921#0" to="24577487#3" type="car" />
    <person id="ped_69" depart="124.00" type="pedestrian_fast">
        <walk from="660372919#1" to="1234918818#1" />
    </person>
    <trip id="two_wheeler69" depart="124.20" from="23133600#5" to="1278775921#1" type="two_wheeler" />
    <trip id="three_wheeler25" depart="125.00" from="174274680#2" to="24577488#4" type="three_wheeler" />
    <trip id="two_wheeler70" depart="126.00" from="174274680#2" to="564223496" type="two_wheeler" />
    <trip id="car45" depart="126.00" from="563679821" to="24577486#3" type="car" />
    <trip id="bus14" depart="126.00" from="164675827#2" to="1278775921#1" type="bus" />
    <person id="ped_70" depart="126.04" type="pedestrian_slow">
        <walk from="1001015117#0" to="660372919#1" />
    </person>
    <trip id="e_rickshaw17" depart="127.50" from="28103794#0" to="578543603#3" type="e_rickshaw" />
    <person id="ped_71" depart="127.78" type="pedestrian_fast">
        <walk from="164675822#0" to="1119548718" />
    </person>
    <trip id="two_wheeler71" depart="127.80" from="391534135#0" to="-103176785" type="two_wheeler" />
    <trip id="car46" depart="128.80" from="80499778#0" to="-164675827#3" type="car" />
    <person id="ped_72" depart="129.16" type="pedestrian">
        <walk from="80499763#7" to="1119548719" />
    </person>
    <trip id="two_wheeler72" depart="129.60" from="28103794#0" to="-103176785" type="two_wheeler" />
    <trip id="three_wheeler26" depart="130.00" from="570616026#4" to="570616026#5" type="three_wheeler" />
    <person id="ped_73" depart="130.97" type="pedestrian">
        <walk from="164675812#1" to="1119548722" />
    </person>
    <trip id="two_wheeler73" depart="131.40" from="391534135#1" to="174274680#1" type="two_wheeler" />
    <trip id="car47" depart="131.60" from="391534135#2" to="164675827#3" type="car" />
    <trip id="cycle_rickshaw11" depart="132.00" from="-125442273#2" to="-1000443879#1" type="cycle_rickshaw" />
    <person id="ped_74" depart="133.10" type="pedestrian_fast">
        <walk from="611102337" to="1119548722" />
    </person>
    <trip id="two_wheeler74" depart="133.20" from="24577488#3" to="24577488#6" type="two_wheeler" />
    <trip id="car48" depart="134.40" from="24582921#0" to="-103176785" type="car" />
    <trip id="two_wheeler75" depart="135.00" from="23133600#1" to="1375201075" type="two_wheeler" />
    <trip id="three_wheeler27" depart="135.00" from="579781481#0" to="253307767#3" type="three_wheeler" />
    <trip id="e_rickshaw18" depart="135.00" from="707566696#0" to="564223496" type="e_rickshaw" />
    <trip id="bus15" depart="135.00" from="563679821" to="578543603#3" type="bus" />
    <person id="ped_75" depart="135.08" type="pedestrian">
        <walk from="1119548714" to="1119638715" />
    </person>
    <trip id="two_wheeler76" depart="136.80" from="253307767#0" to="1278775921#1" type="two_wheeler" />