<?xml version="1.0" encoding="UTF-8"?>

<!-- generated on 2026-02-26 11:30:13.814945 by Eclipse SUMO randomTrips.py v1.26.0
<configuration>
    <net-file value="delhi_intersection.net.xml"/>
    <additional-files value="delhi_vtypes.add.xml"/>
    <output-trip-file value="trips_ambulance.trips.xml"/>
    <prefix value="ambulance"/>
    <trip-attributes value="type=&quot;ambulance&quot;"/>
    <fringe-factor value="10"/>
    <allow-fringe.min-length value="50.0"/>
    <edge-permission value="emergency"/>
    <random value="True"/>
    <min-distance value="100.0"/>
    <period value="90.0"/>
</configuration>
-->

<!-- generated on 2026-02-26T11:30:13.804145+05:30 by Eclipse SUMO duarouter 1.26.0
<duarouterConfiguration xmlns:xsi="http://www.w3.org/2001/XMLSchema-instance" xsi:noNamespaceSchemaLocation="http://sumo.dlr.de/xsd/duarouterConfiguration.xsd">

    <input>
        <net-file value="delhi_intersection.net.xml"/>
        <additional-files value="delhi_vtypes.add.xml"/>
        <route-files value="trips_ambulance.trips.xml"/>
    </input>

    <output>
        <output-file value="routes.rou.xml"/>
        <alternatives-output value="NUL"/>
    </output>

    <time>
        <begin value="0.0"/>
        <end value="3600.0"/>
    </time>

    <report>
        <no-warnings value="true"/>
        <ignore-errors value="true"/>
        <no-step-log value="true"/>
    </report>

</duarouterConfiguration>
-->

<routes xmlns:xsi="http://www.w3.org/2001/XMLSchema-instance" xsi:noNamespaceSchemaLocation="http://sumo.dlr.de/xsd/routes_file.xsd">
    <vType id="ambulance" length="5.50" minGap="2.50" maxSpeed="22.22" speedFactor="normc(1.20,0.10,0.20,2.00)" vClass="emergency" emissionClass="HBEFA4/PC_petrol_Euro-4" guiShape="emergency" width="2.00" height="2.50" color="white" accel="3.0" decel="5.0" sigma="0.3"/>
    <vehicle id="ambulance0" type="ambulance" depart="0.00">
        <route edges="24577482#2 23133600#4 23133600#5 23133600#6 23133600#7 23133600#8 23133600#9 23133600#10"/>
    </vehicle>
    <vehicle id="ambulance1" type="ambulance" depart="90.00">
        <route edges="24577480#1 24577480#2 23133600#0 23133600#1 23133600#2 23133600#3 1375201075 760480736 562340247#0 562340247#1 562340247#2 562340247#3 562340247#4 562340247#5 562340245 23133709#0 23133709#1 23133709#2 23133709#3 23133709#4 596373346 596373332#0 596373332#1"/>
    </vehicle>
    <vehicle id="ambulance2" type="ambulance" depart="180.00">
        <route edges="-1466163953 572511732#6 572511732#7 572511732#8 572511732#9 446922591 760480736 562340247#0 562340247#1 562340247#2 562340247#3 562340247#4 562340247#5 562340245 23133709#0 23133709#1 23133709#2 23133709#3 23133709#4 596373346 596373332#0 253307767#0 253307767#1"/>
    </vehicle>
    <vehicle id="ambulance3" type="ambulance" depart="270.00">
        <route edges="-1120299304 23133600#2 23133600#3 23133600#4 23133600#5 23133600#6 23133600#7 23133600#8 23133600#9 23133600#10 174274680#2 572511732#1 572511732#2 572511732#3 24577483#0"/>
    </vehicle>
    <vehicle id="ambulance4" type="ambulance" depart="360.00">
        <route edges="-1466163953 572511732#6 572511732#7 572511732#8 572511732#9 446922591 760480736 562340247#0 562340247#1 562340247#2 562340247#3 562340247#4 562340247#5 562340245 23133709#0 23133709#1 23133709#2 23133709#3 23133709#4 562340241 391534135#0 391534135#1"/>
    </vehicle>
    <vehicle id="ambulance5" type="ambulance" depart="450.00">
        <route edges="24577482#2 1375201075 760480736 562340247#0 562340247#1 562340247#2 562340247#3 562340247#4 562340247#5 562340243 570616026#1 570616026#2 164675827#0 164675827#1"/>
    </vehicle>
    <vehicle id="ambulance6" type="ambulance" depart="540.00">
        <route edges="23133600#0 23133600#1 1120299304"/>
    </vehicle>
    <vehicle id="ambulance7" type="ambulance" depart="630.00">
        <route edges="23133600#5 23133600#6 23133600#7 23133600#8 24577483#1 24577483#2 23133486#1 23133486#2 23133486#3 23133486#4 24577482#0 24577482#1 24577482#2 1375201075 760480736 562340247#0 562340247#1 562340247#2 562340247#3 562340247#4 562340247#5 562340245 23133709#0 23133709#1 23133709#2 23133709#3 23133709#4 562340241 570616028#0 1278775921#1"/>
    </vehicle>
    <vehicle id="ambulance8" type="ambulance" depart="720.00">
        <route edges="24577483#1 24577483#2 23133486#1 23133486#2 23133486#3 23133486#4 24577482#0 24577482#1 24577482#2 23133600#4 23133600#5 23133600#6 23133600#7 23133600#8 23133600#9 23133600#10 174274680#2 572511732#1 572511732#2 572511732#3 572511732#4 572511732#5 572511732#6 572511732#7 572511732#8 -24582921#1 -24582921#0"/>
    </vehicle>
    <vehicle id="ambulance9" type="ambulance" depart="810.00">
        <route edges="-1120299304 23133600#2 23133600#3 23133600#4 23133600#5 23133600#6 23133600#7 23133600#8 23133600#9 23133600#10 174274680#2 572511732#1 572511732#2 572511732#3 572511732#4 572511732#5 1386548336"/>
    </vehicle>
    <vehicle id="ambulance10" type="ambulance" depart="900.00">
        <route edges="80499778#0 80499778#2 80499778#3 562340247#0 562340247#1 562340247#2 562340247#3 562340247#4 562340247#5 562340245 23133709#0 23133709#1 23133709#2 23133709#3 23133709#4 24577480#0 24577480#1 24577480#2 24577480#3 24577480#4 23133486#8 23133486#9 23133486#10 23133486#11 23133486#12 23133486#13 23133486#14 23133486#15 23133486#16 23133486#17 23133486#18 23133486#19 23133486#20 23133486#21 23133486#22 23133486#23 23133486#24 174274680#0 174274680#1 174274680#2 572511732#1 572511732#2 572511732#3 572511732#4 24582917"/>
    </vehicle>
    <vehicle id="ambulance11" type="ambulance" depart="990.00">
        <route edges="80499778#3 562340247#0 562340247#1 562340247#2 562340247#3 562340247#4 562340247#5 562340245 23133709#0 23133709#1 23133709#2 23133709#3 23133709#4 24577480#0 24577480#1 24577480#2 23133600#0 23133600#1 23133600#2 23133600#3 1375201075 760480737 578543603#1 578543603#2"/>
    </vehicle>
    <vehicle id="ambulance12" type="ambulance" depart="1080.00">
        <route edges="579781481#0 579781481#1 570616027 23133709#0 23133709#1 23133709#2 23133709#3 23133709#4 24577480#0 24577480#1 24577480#2 23133600#0 23133600#1 23133600#2 23133600#3 1375201075 760480737 578543603#1 578543603#2 578543603#3"/>
    </vehicle>
    <vehicle id="ambulance13" type="ambulance" depart="1170.00">
        <route edges="24577480#2 24577480#3 24577480#4 23133486#8 23133486#9 23133486#10 23133486#11 23133486#12 23133486#13 23133486#14 23133486#15 23133486#16 24577487#0"/>
    </vehicle>
    <vehicle id="ambulance14" type="ambulance" depart="1260.00">
        <route edges="24577486#3 23133486#24 23133486#25 23133486#26 23133486#0 23133486#1 23133486#2 23133486#3 23133486#4 24577482#0 24577482#1 24577482#2 1375201075 760480736 562340247#0 562340247#1 562340247#2 562340247#3 562340247#4 562340247#5 562340243 570616026#1 570616026#2 570616026#4 570616026#5"/>
    </vehicle>
    <vehicle id="ambulance15" type="ambulance" depart="1350.00">
        <route edges="579781481#0 579781481#1 570616027 23133709#0 23133709#1 23133709#2 23133709#3 23133709#4 24577480#0 24577480#1 24577480#2 23133600#0 23133600#1 1120299304"/>
    </vehicle>
    <vehicle id="ambulance16" type="ambulance" depart="1440.00">
        <route edges="23133600#0 23133600#1 23133600#2 23133600#3 1375201075 760480737 578543603#1 578543603#2 578543603#3"/>
    </vehicle>
    <vehicle id="ambulance17" type="ambulance" depart="1530.00">
        <route edges="28103794#0 572511732#0 572511732#1 572511732#2 572511732#3 572511732#4 572511732#5 572511732#6 572511732#7 572511732#8 572511732#9 446922591 760480736 562340247#0 562340247#1 562340247#2 562340247#3 562340247#4 562340247#5 562340245 23133709#0 23133709#1 23133709#2 23133709#3 23133709#4 562340241"/>
    </vehicle>
    <vehicle id="ambulance18" type="ambulance" depart="1620.00">
        <route edges="164675827#3 164675827#4 164675827#5 80499778#2 80499778#3 562340247#0 562340247#1 562340247#2 562340247#3 562340247#4 562340247#5 562340245 23133709#0 23133709#1 23133709#2 23133709#3 23133709#4 24577480#0 24577480#1 24577480#2 23133600#0 23133600#1 23133600#2 23133600#3 1375201075 760480737 578543603#1 578543603#2 578543603#3"/>
    </vehicle>
    <vehicle id="ambulance19" type="ambulance" depart="1710.00">
        <route edges="80499778#0 80499778#2 80499778#3 562340247#0 562340247#1 562340247#2 562340247#3 562340247#4 562340247#5 562340245 23133709#0 23133709#1 23133709#2 23133709#3 23133709#4 24577480#0 24577480#1 24577480#2 24577480#3 24577480#4 23133486#8 23133486#9 23133486#10 23133486#11 23133486#12 23133486#13 23133486#14 23133486#15 23133486#16 23133486#17 23133486#18 23133486#19 23133486#20 23133486#21 23133486#22 23133486#23 23133486#24 174274680#0 174274680#1 174274680#2"/>
    </vehicle>
    <vehicle id="ambulance20" type="ambulance" depart="1800.00">
        <route edges="80499778#0 80499778#2 80499778#3 562340247#0 562340247#1 562340247#2 562340247#3 562340247#4 562340247#5 562340245 23133709#0 23133709#1 23133709#2 23133709#3 23133709#4 562340241 564223496"/>
    </vehicle>
    <vehicle id="ambulance21" type="ambulance" depart="1890.00">
        <route edges="24582921#0 24582921#1 572511732#9 446922591 760480736 562340247#0 562340247#1 562340247#2 562340247#3 562340247#4 562340247#5 562340245 23133709#0 23133709#1 23133709#2 23133709#3 23133709#4 562340241 391534135#0 391534135#1"/>
    </vehicle>
    <vehicle id="ambulance22" type="ambulance" depart="1980.00">
        <route edges="23133600#9 23133600#10 23133600#11 23133600#12 23133600#13 24577487#2 24577487#3"/>
    </vehicle>
    <vehicle id="ambulance23" type="ambulance" depart="2070.00">
        <route edges="707566696#0 707566696#1 164675827#3 164675827#4 164675827#5 80499778#2 80499778#3 562340247#0 562340247#1 562340247#2 562340247#3 562340247#4 562340247#5 562340245 23133709#0 23133709#1 23133709#2 23133709#3 23133709#4 24577480#0 24577480#1 24577480#2 24577480#3 24577480#4 23133486#8 23133486#9 23133486#10 23133486#11 23133486#12 23133486#13 23133486#14 23133486#15 23133486#16 23133486#17 23133486#18 23133486#19 23133486#20 23133486#21 23133486#22 23133486#23 23133486#24 174274680#0 174274680#1 174274680#2 572511732#1 572511732#2 572511732#3 572511732#4 572511732#5 1386548336"/>
    </vehicle>
    <vehicle id="ambulance24" type="ambulance" depart="2160.00">
        <route edges="563679821 562340241 570616028#0 1278775921#1"/>
    </vehicle>
    <vehicle id="ambulance25" type="ambulance" depart="2250.00">
        <route edges="707566696#0 707566696#1 -164675827#2 -164675827#1 -164675827#0 570616026#4 570616026#5"/>
    </vehicle>
    <vehicle id="ambulance26" type="ambulance" depart="2340.00">
        <route edges="23133600#0 23133600#1 23133600#2 23133600#3 1375201075 760480736 562340247#0 562340247#1 562340247#2 562340247#3 562340247#4 562340247#5 562340245 23133709#0 23133709#1"/>
    </vehicle>
    <vehicle id="ambulance27" type="ambulance" depart="2430.00">
        <route edges="23133600#13 23133600#14 23133600#15 24577488#5 24577488#6"/>
    </vehicle>
    <vehicle id="ambulance28" type="ambulance" depart="2520.00">
        <route edges="570616026#1 570616026#2 164675827#0 164675827#1 164675827#2 164675827#3 164675827#4 164675827#5 80499778#2 80499778#3 562340247#0 562340247#1 562340247#2 562340247#3 562340247#4 562340247#5 562340245 23133709#0 23133709#1 23133709#2 23133709#3 23133709#4 24577480#0 24577480#1 24577480#2 23133600#0 23133600#1 23133600#2 23133600#3 1375201075 760480737 578543603#1 578543603#2 578543603#3"/>
    </vehicle>
    <vehicle id="ambulance29" type="ambulance" depart="2610.00">
        <route edges="28103794#0 572511732#0 572511732#1 572511732#2 572511732#3 572511732#4 572511732#5 572511732#6 572511732#7 572511732#8 572511732#9 446922591 760480736 562340247#0 562340247#1 562340247#2 562340247#3 562340247#4 562340247#5 562340245 23133709#0 23133709#1 23133709#2 23133709#3 23133709#4 24577480#0 24577480#1 24577480#2 23133600#0 23133600#1 1120299304"/>
    </vehicle>
    <vehicle id="ambulance30" type="ambulance" depart="2700.00">
        <route edges="28103794#0 572511732#0 572511732#1 572511732#2 572511732#3 24577483#0 24577483#1 24577483#2 23133486#1 23133486#2 23133486#3 23133486#4 23133486#5 23133486#6 23133486#7 23133486#8 23133486#9 23133486#10 23133486#11 24577488#0 24577488#1 24577488#2 24577488#3 24577488#4 24577488#5 24577488#6"/>
    </vehicle>
    <vehicle id="ambulance31" type="ambulance" depart="2790.00">
        <route edges="707566696#0 707566696#1 164675827#3 164675827#4 164675827#5 80499778#2 80499778#3 562340247#0 562340247#1 562340247#2 562340247#3 562340247#4 562340247#5 562340245 23133709#0 23133709#1 23133709#2 23133709#3 23133709#4 562340241"/>
    </vehicle>
    <vehicle id="ambulance32" type="ambulance" depart="2880.00">
        <route edges="164675827#5 80499778#2 80499778#3 562340247#0 562340247#1 562340247#2 562340247#3 562340247#4 562340247#5 562340245 23133709#0 23133709#1 23133709#2 23133709#3 23133709#4 24577480#0 24577480#1 24577480#2 23133600#0 23133600#1 1120299304"/>
    </vehicle>
    <vehicle id="ambulance33" type="ambulance" depart="2970.00">
        <route edges="-1120299304 23133600#2 23133600#3 23133600#4 23133600#5 23133600#6 23133600#7 23133600#8 23133600#9 23133600#10 23133600#11 23133600#12 23133600#13"/>
    </vehicle>
    <vehicle id="ambulance34" type="ambulance" depart="3060.00">
        <route edges="23133600#2 23133600#3 1375201075 760480736 562340247#0 562340247#1 562340247#2 562340247#3 562340247#4 562340247#5 562340245 23133709#0 23133709#1 23133709#2 23133709#3 23133709#4 562340241"/>
    </vehicle>
    <vehicle id="ambulance35" type="ambulance" depart="3150.00">
        <route edges="28103794#0 572511732#0 572511732#1 572511732#2 572511732#3 24577483#0 24577483#1 24577483#2 23133486#1 23133486#2 23133486#3 23133486#4 24577482#0 24577482#1 24577482#2 23133600#4 23133600#5 23133600#6 23133600#7 23133600#8"/>
    </vehicle>
    <vehicle id="ambulance36" type="ambulance" depart="3240.00">
        <route edges="596373346 596373332#0 253307767#0 253307767#1 253307767#2 253307767#3 253307767#4 579781481#1 570616027 23133709#0 23133709#1 23133709#2 23133709#3 23133709#4 24577480#0 24577480#1 24577480#2 23133600#0 23133600#1 23133600#2 23133600#3 1375201075 760480736 562340247#0 562340247#1 562340247#2 562340247#3 562340247#4 562340247#5 562340243 570616026#1 570616026#2 164675827#0 164675827#1 164675827#2 -707566696#1 -707566696#0"/>
    </vehicle>
    <vehicle id="ambulance37" type="ambulance" depart="3330.00">
        <route edges="28103794#0 572511732#0 572511732#1 572511732#2 572511732#3 572511732#4 572511732#5 572511732#6 572511732#7 572511732#8 572511732#9 446922591 760480736 562340247#0 562340247#1 562340247#2 562340247#3 562340247#4 562340247#5 562340245 23133709#0 23133709#1 23133709#2 23133709#3 23133709#4 562340241 570616028#0 1278775921#1"/>
    </vehicle>
    <vehicle id="ambulance38" type="ambulance" depart="3420.00">
        <route edges="174274680#2 572511732#1 572511732#2 572511732#3 572511732#4 572511732#5 572511732#6 572511732#7 572511732#8 572511732#9 446922591 760480736 562340247#0 562340247#1 562340247#2 562340247#3 562340247#4 562340247#5 562340245 23133709#0 23133709#1 23133709#2 23133709#3 23133709#4 562340241 570616028#0 1278775921#1"/>
    </vehicle>
    <vehicle id="ambulance39" type="ambulance" depart="3510.00">
        <route edges="164675827#2 164675827#3 164675827#4 164675827#5 80499778#2 80499778#3 562340247#0 562340247#1 562340247#2 562340247#3 562340247#4 562340247#5 562340245 23133709#0 23133709#1 23133709#2 23133709#3 23133709#4 24577480#0 24577480#1 24577480#2 24577480#3 24577480#4 23133486#8 23133486#9 -391534135#6 -391534135#5 -391534135#4 -391534135#3"/>
    </vehicle>
</routes>
